set1_3_ligand.pdb
  MOE2012           3D

 24 24  0  0  1  0  0  0  0  0999 V2000
    4.7640   42.0550   25.6370 C   0  0  3  0  0  0  0  0  0  0  0  0
    3.6720   41.1930   25.0060 C   0  0  3  0  0  0  0  0  0  0  0  0
    3.0880   40.2510   26.0630 C   0  0  3  0  0  0  0  0  0  0  0  0
    4.2050   39.4170   26.6960 C   0  0  3  0  0  0  0  0  0  0  0  0
    5.2680   40.3600   27.2700 C   0  0  3  0  0  0  0  0  0  0  0  0
    6.4520   39.6200   27.8570 C   0  0  0  0  0  0  0  0  0  0  0  0
    4.2100   42.8460   26.6330 O   0  0  0  0  0  0  0  0  0  0  0  0
    4.2230   40.4340   23.9410 O   0  0  0  0  0  0  0  0  0  0  0  0
    2.1260   39.4080   25.4630 O   0  0  0  0  0  0  0  0  0  0  0  0
    3.6760   38.6030   27.7360 O   0  0  0  0  0  0  0  0  0  0  0  0
    5.7810   41.2210   26.2280 O   0  0  0  0  0  0  0  0  0  0  0  0
    7.1650   38.9340   26.8380 O   0  0  0  0  0  0  0  0  0  0  0  0
    5.2160   42.6940   24.8640 H   0  0  0  0  0  0  0  0  0  0  0  0
    2.8740   41.8420   24.6160 H   0  0  0  0  0  0  0  0  0  0  0  0
    2.6010   40.8490   26.8480 H   0  0  0  0  0  0  0  0  0  0  0  0
    4.6610   38.7740   25.9280 H   0  0  0  0  0  0  0  0  0  0  0  0
    4.8020   40.9720   28.0570 H   0  0  0  0  0  0  0  0  0  0  0  0
    6.0920   38.8930   28.6000 H   0  0  0  0  0  0  0  0  0  0  0  0
    7.1230   40.3410   28.3460 H   0  0  0  0  0  0  0  0  0  0  0  0
    4.8890   43.3820   27.0260 H   0  0  0  0  0  0  0  0  0  0  0  0
    4.5840   41.0210   23.2870 H   0  0  0  0  0  0  0  0  0  0  0  0
    1.4390   39.9370   25.0740 H   0  0  0  0  0  0  0  0  0  0  0  0
    3.0170   38.0200   27.3780 H   0  0  0  0  0  0  0  0  0  0  0  0
    7.9030   38.4760   27.2220 H   0  0  0  0  0  0  0  0  0  0  0  0
  1  2  1  0  0  0  0
  1  7  1  0  0  0  0
  1 11  1  0  0  0  0
  1 13  1  0  0  0  0
  2  3  1  0  0  0  0
  2  8  1  0  0  0  0
  2 14  1  0  0  0  0
  3  4  1  0  0  0  0
  3  9  1  0  0  0  0
  3 15  1  0  0  0  0
  4  5  1  0  0  0  0
  4 10  1  0  0  0  0
  4 16  1  0  0  0  0
  5  6  1  0  0  0  0
  5 11  1  0  0  0  0
  5 17  1  0  0  0  0
  6 12  1  0  0  0  0
  6 18  1  0  0  0  0
  6 19  1  0  0  0  0
  7 20  1  0  0  0  0
  8 21  1  0  0  0  0
  9 22  1  0  0  0  0
 10 23  1  0  0  0  0
 12 24  1  0  0  0  0
M  END
$$$$
set1_8_ligand.pdb
  MOE2012           3D

 29 30  0  0  1  0  0  0  0  0999 V2000
   20.0830   34.2930  112.2200 C   0  0  0  0  0  0  0  0  0  0  0  0
   20.7070   34.5890  110.8970 C   0  0  3  0  0  0  0  0  0  0  0  0
   21.9780   35.5440  111.0290 C   0  0  3  0  0  0  0  0  0  0  0  0
   22.3490   35.9910  112.4640 C   0  0  3  0  0  0  0  0  0  0  0  0
   22.1740   34.8880  113.5380 C   0  0  3  0  0  0  0  0  0  0  0  0
   21.9750   35.3560  115.0110 C   0  0  3  0  0  0  0  0  0  0  0  0
   21.0120   33.3270  110.2660 O   0  0  0  0  0  0  0  0  0  0  0  0
   21.7080   36.7660  110.3030 O   0  0  0  0  0  0  0  0  0  0  0  0
   23.7120   36.4430  112.5220 O   0  0  0  0  0  0  0  0  0  0  0  0
   22.5080   36.6620  115.3030 O   0  0  0  0  0  0  0  0  0  0  0  0
   21.0370   33.9920  113.2870 N   0  3  3  0  0  0  0  0  0  0  0  0
   20.4420   35.2890  115.1520 C   0  0  0  0  0  0  0  0  0  0  0  0
   20.2730   33.8860  114.5330 C   0  0  0  0  0  0  0  0  0  0  0  0
   19.4170   33.4250  112.1000 H   0  0  0  0  0  0  0  0  0  0  0  0
   19.4920   35.1690  112.5250 H   0  0  0  0  0  0  0  0  0  0  0  0
   19.9670   35.1140  110.2750 H   0  0  0  0  0  0  0  0  0  0  0  0
   22.8420   35.0240  110.5890 H   0  0  0  0  0  0  0  0  0  0  0  0
   21.6880   36.8300  112.7280 H   0  0  0  0  0  0  0  0  0  0  0  0
   23.0970   34.2900  113.5030 H   0  0  0  0  0  0  0  0  0  0  0  0
   22.4510   34.6400  115.6980 H   0  0  0  0  0  0  0  0  0  0  0  0
   21.2630   32.6950  110.9300 H   0  0  0  0  0  0  0  0  0  0  0  0
   21.4720   36.5550  109.4070 H   0  0  0  0  0  0  0  0  0  0  0  0
   23.8920   36.7910  113.3870 H   0  0  0  0  0  0  0  0  0  0  0  0
   23.4430   36.6660  115.1360 H   0  0  0  0  0  0  0  0  0  0  0  0
   21.4310   33.0900  113.0680 H   0  0  0  0  0  0  0  0  0  0  0  0
   19.9290   36.0710  114.5730 H   0  0  0  0  0  0  0  0  0  0  0  0
   20.1110   35.3320  116.2000 H   0  0  0  0  0  0  0  0  0  0  0  0
   20.6910   33.1090  115.1900 H   0  0  0  0  0  0  0  0  0  0  0  0
   19.2140   33.6660  114.3320 H   0  0  0  0  0  0  0  0  0  0  0  0
  1  2  1  0  0  0  0
  1 11  1  0  0  0  0
  1 14  1  0  0  0  0
  1 15  1  0  0  0  0
  2  3  1  0  0  0  0
  2  7  1  0  0  0  0
  2 16  1  0  0  0  0
  3  4  1  0  0  0  0
  3  8  1  0  0  0  0
  3 17  1  0  0  0  0
  4  5  1  0  0  0  0
  4  9  1  0  0  0  0
  4 18  1  0  0  0  0
  5  6  1  0  0  0  0
  5 11  1  0  0  0  0
  5 19  1  0  0  0  0
  6 10  1  0  0  0  0
  6 12  1  0  0  0  0
  6 20  1  0  0  0  0
  7 21  1  0  0  0  0
  8 22  1  0  0  0  0
  9 23  1  0  0  0  0
 10 24  1  0  0  0  0
 11 13  1  0  0  0  0
 11 25  1  0  0  0  0
 12 13  1  0  0  0  0
 12 26  1  0  0  0  0
 12 27  1  0  0  0  0
 13 28  1  0  0  0  0
 13 29  1  0  0  0  0
M  CHG  1  11   1
M  END
$$$$