untitled
  ChemPy            3D                             0

 43 44  0  0  1  0  0  0  0  0999 V2000
   -3.3750   -5.5570  -51.4010 C   0  0  0  0  0  0  0  0  0  0  0  0
   -2.4950   -4.6140  -52.1870 C   0  0  0  0  0  0  0  0  0  0  0  0
   -1.0600   -5.1520  -52.0810 C   0  0  0  0  0  0  0  0  0  0  0  0
   -0.7450   -5.1510  -50.5730 C   0  0  0  0  0  0  0  0  0  0  0  0
   -1.6350   -6.1070  -49.8550 C   0  0  0  0  0  0  0  0  0  0  0  0
   -1.4300   -6.2550  -48.3900 C   0  0  0  0  0  0  0  0  0  0  0  0
   -7.9190   -6.8600  -50.3370 C   0  0  0  0  0  0  0  0  0  0  0  0
   -7.5750   -5.8950  -49.3340 C   0  0  0  0  0  0  0  0  0  0  0  0
   -6.5670   -4.8750  -49.9460 C   0  0  0  0  0  0  0  0  0  0  0  0
   -5.5850   -5.7800  -50.6990 C   0  0  0  0  0  0  0  0  0  0  0  0
   -6.2760   -6.4620  -51.8260 C   0  0  0  0  0  0  0  0  0  0  0  0
   -5.4140   -7.2450  -52.7820 C   0  0  0  0  0  0  0  0  0  0  0  0
   -2.9720   -4.6350  -53.5200 O   0  0  0  0  0  0  0  0  0  0  0  0
   -0.2000   -4.2780  -52.7450 O   0  0  0  0  0  0  0  0  0  0  0  0
    0.6110   -5.6150  -50.3530 O   0  0  0  0  0  0  0  0  0  0  0  0
   -2.9920   -5.6180  -50.0280 O   0  0  0  0  0  0  0  0  0  0  0  0
   -1.6530   -5.0690  -47.6930 O   0  0  0  0  0  0  0  0  0  0  0  0
   -9.2210   -7.0570  -50.8340 O   0  0  0  0  0  0  0  0  0  0  0  0
   -8.6340   -5.2030  -48.7310 O   0  0  0  0  0  0  0  0  0  0  0  0
   -5.9360   -4.2790  -48.8810 O   0  0  0  0  0  0  0  0  0  0  0  0
   -4.6230   -4.9300  -51.3780 O   0  0  0  0  0  0  0  0  0  0  0  0
   -7.0160   -7.5100  -51.1650 O   0  0  0  0  0  0  0  0  0  0  0  0
   -5.2790   -8.4920  -52.1580 O   0  0  0  0  0  0  0  0  0  0  0  0
   -3.3350   -6.5340  -51.8360 H   0  0  0  0  0  0  0  0  0  0  0  0
   -2.5100   -3.6060  -51.8280 H   0  0  0  0  0  0  0  0  0  0  0  0
   -0.9480   -6.1250  -52.5120 H   0  0  0  0  0  0  0  0  0  0  0  0
   -0.8840   -4.1520  -50.2140 H   0  0  0  0  0  0  0  0  0  0  0  0
   -1.4180   -7.0670  -50.2750 H   0  0  0  0  0  0  0  0  0  0  0  0
   -0.4370   -6.6050  -48.1980 H   0  0  0  0  0  0  0  0  0  0  0  0
   -2.1490   -6.9670  -48.0410 H   0  0  0  0  0  0  0  0  0  0  0  0
   -2.9620   -5.5460  -53.8530 H   0  0  0  0  0  0  0  0  0  0  0  0
   -0.2870   -3.3890  -52.3670 H   0  0  0  0  0  0  0  0  0  0  0  0
    0.7020   -6.5210  -50.6890 H   0  0  0  0  0  0  0  0  0  0  0  0
   -1.0170   -4.3970  -47.9850 H   0  0  0  0  0  0  0  0  0  0  0  0
   -7.1540   -6.4680  -48.5350 H   0  0  0  0  0  0  0  0  0  0  0  0
   -6.9890   -4.1200  -50.5760 H   0  0  0  0  0  0  0  0  0  0  0  0
   -5.1610   -6.4670  -49.9960 H   0  0  0  0  0  0  0  0  0  0  0  0
   -6.7810   -5.7030  -52.3860 H   0  0  0  0  0  0  0  0  0  0  0  0
   -5.8810   -7.3380  -53.7400 H   0  0  0  0  0  0  0  0  0  0  0  0
   -4.4730   -6.7730  -52.9720 H   0  0  0  0  0  0  0  0  0  0  0  0
   -9.0780   -4.6500  -49.3930 H   0  0  0  0  0  0  0  0  0  0  0  0
   -5.5530   -4.9620  -48.3080 H   0  0  0  0  0  0  0  0  0  0  0  0
   -6.1570   -8.8760  -52.0080 H   0  0  0  0  0  0  0  0  0  0  0  0
  1  2  1  0  0  0  0
  1 16  1  0  0  0  0
  1 21  1  0  0  0  0
  1 24  1  0  0  0  0
  2  3  1  0  0  0  0
  2 13  1  0  0  0  0
  2 25  1  0  0  0  0
  3  4  1  0  0  0  0
  3 14  1  0  0  0  0
  3 26  1  0  0  0  0
  4  5  1  0  0  0  0
  4 15  1  0  0  0  0
  4 27  1  0  0  0  0
  5  6  1  0  0  0  0
  5 16  1  0  0  0  0
  5 28  1  0  0  0  0
  6 17  1  0  0  0  0
  6 29  1  0  0  0  0
  6 30  1  0  0  0  0
  7  8  1  0  0  0  0
  7 18  2  0  0  0  0
  7 22  1  0  0  0  0
  8  9  1  0  0  0  0
  8 19  1  0  0  0  0
  8 35  1  0  0  0  0
  9 10  1  0  0  0  0
  9 20  1  0  0  0  0
  9 36  1  0  0  0  0
 10 11  1  0  0  0  0
 10 21  1  0  0  0  0
 10 37  1  0  0  0  0
 11 12  1  0  0  0  0
 11 22  1  0  0  0  0
 11 38  1  0  0  0  0
 12 23  1  0  0  0  0
 12 39  1  0  0  0  0
 12 40  1  0  0  0  0
 13 31  1  0  0  0  0
 14 32  1  0  0  0  0
 15 33  1  0  0  0  0
 17 34  1  0  0  0  0
 19 41  1  0  0  0  0
 20 42  1  0  0  0  0
 23 43  1  0  0  0  0
M  END
