4agm


 47 48  0  0  0  0  0  0  0  0999 V2000
   90.4980   98.3810  -44.6910 N   0  3  0  1  0  4  0  0  0  0  0  0
   92.0405  102.3576  -44.2461 N   0  3  0  1  0  4  0  0  0  0  0  0
   91.5581   94.0357  -43.9506 C   0  0  0  1  0  3  0  0  0  0  0  0
   90.8112   95.9735  -45.2160 C   0  0  0  1  0  3  0  0  0  0  0  0
   92.5806   93.7979  -44.8781 C   0  0  0  1  0  3  0  0  0  0  0  0
   89.9050   97.1660  -45.3350 C   0  0  0  1  0  4  0  0  0  0  0  0
   89.5430   99.5450  -44.7170 C   0  0  0  1  0  4  0  0  0  0  0  0
   90.6785   95.1165  -44.1161 C   0  0  0  1  0  3  0  0  0  0  0  0
   92.6950   94.6666  -45.9758 C   0  0  0  1  0  3  0  0  0  0  0  0
   91.8355   95.7630  -46.1765 C   0  0  0  1  0  3  0  0  0  0  0  0
   90.1750  100.7310  -44.0050 C   0  0  0  1  0  4  0  0  0  0  0  0
   91.4300  101.0810  -44.8020 C   0  0  0  1  0  4  0  0  0  0  0  0
   91.0627  103.5137  -44.3648 C   0  0  0  1  0  4  0  0  0  0  0  0
   89.7362  103.2491  -43.6737 C   0  0  0  1  0  4  0  0  0  0  0  0
   93.3664  102.6994  -44.8897 C   0  0  0  1  0  4  0  0  0  0  0  0
   94.4437  101.6528  -44.6381 C   0  0  0  1  0  4  0  0  0  0  0  0
   92.4510   99.9400  -44.6950 C   0  0  0  1  0  4  0  0  0  0  0  0
   91.8210   98.7070  -45.3220 C   0  0  0  1  0  4  0  0  0  0  0  0
   91.9812   96.5927  -47.2541 O   0  0  0  1  0  2  0  0  0  0  0  0
   91.3377   92.7515  -42.2823 I   0  0  0  1  0  1  0  0  0  0  0  0
   94.2299   94.3107  -47.3930 I   0  0  0  1  0  1  0  0  0  0  0  0
   90.6654   98.1803  -43.7171 H   0  0  0  1  0  1  0  0  0  0  0  0
   91.4049   96.3058  -47.9528 H   0  0  0  1  0  1  0  0  0  0  0  0
   93.2646   92.9666  -44.7522 H   0  0  0  1  0  1  0  0  0  0  0  0
   89.7316   97.3768  -46.4017 H   0  0  0  1  0  1  0  0  0  0  0  0
   88.9469   96.9354  -44.8458 H   0  0  0  1  0  1  0  0  0  0  0  0
   92.2147  102.2040  -43.2644 H   0  0  0  1  0  1  0  0  0  0  0  0
   88.6095   99.2654  -44.2068 H   0  0  0  1  0  1  0  0  0  0  0  0
   89.3242   99.8170  -45.7598 H   0  0  0  1  0  1  0  0  0  0  0  0
   89.8926   95.2890  -43.3892 H   0  0  0  1  0  1  0  0  0  0  0  0
   90.4413  100.4594  -42.9731 H   0  0  0  1  0  1  0  0  0  0  0  0
   89.4801  101.5838  -43.9926 H   0  0  0  1  0  1  0  0  0  0  0  0
   91.1614  101.2320  -45.8572 H   0  0  0  1  0  1  0  0  0  0  0  0
   90.8693  103.7017  -45.4320 H   0  0  0  1  0  1  0  0  0  0  0  0
   91.5197  104.4064  -43.9136 H   0  0  0  1  0  1  0  0  0  0  0  0
   89.2523  102.3738  -44.1326 H   0  0  0  1  0  1  0  0  0  0  0  0
   89.0834  104.1281  -43.7814 H   0  0  0  1  0  1  0  0  0  0  0  0
   89.9120  103.0521  -42.6053 H   0  0  0  1  0  1  0  0  0  0  0  0
   93.7131  103.6615  -44.4853 H   0  0  0  1  0  1  0  0  0  0  0  0
   93.2143  102.7908  -45.9754 H   0  0  0  1  0  1  0  0  0  0  0  0
   95.3719  101.9514  -45.1465 H   0  0  0  1  0  1  0  0  0  0  0  0
   94.1089  100.6807  -45.0298 H   0  0  0  1  0  1  0  0  0  0  0  0
   94.6292  101.5679  -43.5575 H   0  0  0  1  0  1  0  0  0  0  0  0
   92.6876   99.7454  -43.6396 H   0  0  0  1  0  1  0  0  0  0  0  0
   93.3718  100.2075  -45.2346 H   0  0  0  1  0  1  0  0  0  0  0  0
   91.6686   98.8910  -46.3961 H   0  0  0  1  0  1  0  0  0  0  0  0
   92.4999   97.8526  -45.1887 H   0  0  0  1  0  1  0  0  0  0  0  0
  1  6  1  0  0  0  0
  1  7  1  0  0  0  0
  1 18  1  0  0  0  0
  1 22  1  0  0  0  0
  2 12  1  0  0  0  0
  2 13  1  0  0  0  0
  2 15  1  0  0  0  0
  2 27  1  0  0  0  0
  3  5  2  0  0  0  0
  3  8  1  0  0  0  0
  3 20  1  0  0  0  0
  4  6  1  0  0  0  0
  4  8  2  0  0  0  0
  4 10  1  0  0  0  0
  5  9  1  0  0  0  0
  5 24  1  0  0  0  0
  6 25  1  0  0  0  0
  6 26  1  0  0  0  0
  7 11  1  0  0  0  0
  7 28  1  0  0  0  0
  7 29  1  0  0  0  0
  8 30  1  0  0  0  0
  9 10  2  0  0  0  0
  9 21  1  0  0  0  0
 10 19  1  0  0  0  0
 11 12  1  0  0  0  0
 11 31  1  0  0  0  0
 11 32  1  0  0  0  0
 12 17  1  0  0  0  0
 12 33  1  0  0  0  0
 13 14  1  0  0  0  0
 13 34  1  0  0  0  0
 13 35  1  0  0  0  0
 14 36  1  0  0  0  0
 14 37  1  0  0  0  0
 14 38  1  0  0  0  0
 15 16  1  0  0  0  0
 15 39  1  0  0  0  0
 15 40  1  0  0  0  0
 16 41  1  0  0  0  0
 16 42  1  0  0  0  0
 16 43  1  0  0  0  0
 17 18  1  0  0  0  0
 17 44  1  0  0  0  0
 17 45  1  0  0  0  0
 18 46  1  0  0  0  0
 18 47  1  0  0  0  0
 19 23  1  0  0  0  0
M  END
> <ConfScore>
-0.723236 

$$$$
4agm


 47 48  0  0  0  0  0  0  0  0999 V2000
   90.4980   98.3810  -44.6910 N   0  3  0  1  0  4  0  0  0  0  0  0
   92.0405  102.3576  -44.2461 N   0  3  0  1  0  4  0  0  0  0  0  0
   91.5581   94.0357  -43.9506 C   0  0  0  1  0  3  0  0  0  0  0  0
   90.8112   95.9735  -45.2160 C   0  0  0  1  0  3  0  0  0  0  0  0
   92.5806   93.7979  -44.8781 C   0  0  0  1  0  3  0  0  0  0  0  0
   89.9050   97.1660  -45.3350 C   0  0  0  1  0  4  0  0  0  0  0  0
   89.5430   99.5450  -44.7170 C   0  0  0  1  0  4  0  0  0  0  0  0
   90.6785   95.1165  -44.1161 C   0  0  0  1  0  3  0  0  0  0  0  0
   92.6950   94.6666  -45.9758 C   0  0  0  1  0  3  0  0  0  0  0  0
   91.8355   95.7630  -46.1765 C   0  0  0  1  0  3  0  0  0  0  0  0
   90.1750  100.7310  -44.0050 C   0  0  0  1  0  4  0  0  0  0  0  0
   91.4300  101.0810  -44.8020 C   0  0  0  1  0  4  0  0  0  0  0  0
   92.4619  102.1630  -42.7999 C   0  0  0  1  0  4  0  0  0  0  0  0
   93.4386  101.0152  -42.6103 C   0  0  0  1  0  4  0  0  0  0  0  0
   91.1247  103.5534  -44.3887 C   0  0  0  1  0  4  0  0  0  0  0  0
   90.6903  103.8092  -45.8257 C   0  0  0  1  0  4  0  0  0  0  0  0
   92.4510   99.9400  -44.6950 C   0  0  0  1  0  4  0  0  0  0  0  0
   91.8210   98.7070  -45.3220 C   0  0  0  1  0  4  0  0  0  0  0  0
   91.9812   96.5927  -47.2541 O   0  0  0  1  0  2  0  0  0  0  0  0
   91.3377   92.7515  -42.2823 I   0  0  0  1  0  1  0  0  0  0  0  0
   94.2299   94.3107  -47.3930 I   0  0  0  1  0  1  0  0  0  0  0  0
   90.6654   98.1803  -43.7171 H   0  0  0  1  0  1  0  0  0  0  0  0
   91.4049   96.3058  -47.9528 H   0  0  0  1  0  1  0  0  0  0  0  0
   93.2646   92.9666  -44.7522 H   0  0  0  1  0  1  0  0  0  0  0  0
   89.7316   97.3768  -46.4017 H   0  0  0  1  0  1  0  0  0  0  0  0
   88.9469   96.9354  -44.8458 H   0  0  0  1  0  1  0  0  0  0  0  0
   92.8720  102.5512  -44.7835 H   0  0  0  1  0  1  0  0  0  0  0  0
   88.6095   99.2654  -44.2068 H   0  0  0  1  0  1  0  0  0  0  0  0
   89.3242   99.8170  -45.7598 H   0  0  0  1  0  1  0  0  0  0  0  0
   89.8926   95.2890  -43.3892 H   0  0  0  1  0  1  0  0  0  0  0  0
   90.4413  100.4594  -42.9731 H   0  0  0  1  0  1  0  0  0  0  0  0
   89.4801  101.5838  -43.9926 H   0  0  0  1  0  1  0  0  0  0  0  0
   91.1614  101.2320  -45.8572 H   0  0  0  1  0  1  0  0  0  0  0  0
   91.5637  101.9607  -42.1967 H   0  0  0  1  0  1  0  0  0  0  0  0
   92.9383  103.0890  -42.4465 H   0  0  0  1  0  1  0  0  0  0  0  0
   92.9667  100.0754  -42.9341 H   0  0  0  1  0  1  0  0  0  0  0  0
   93.7162  100.9399  -41.5483 H   0  0  0  1  0  1  0  0  0  0  0  0
   94.3413  101.1983  -43.2127 H   0  0  0  1  0  1  0  0  0  0  0  0
   91.6537  104.4442  -44.0200 H   0  0  0  1  0  1  0  0  0  0  0  0
   90.2265  103.3802  -43.7774 H   0  0  0  1  0  1  0  0  0  0  0  0
   90.0145  104.6761  -45.8565 H   0  0  0  1  0  1  0  0  0  0  0  0
   90.1660  102.9230  -46.2135 H   0  0  0  1  0  1  0  0  0  0  0  0
   91.5748  104.0122  -46.4470 H   0  0  0  1  0  1  0  0  0  0  0  0
   92.6876   99.7454  -43.6396 H   0  0  0  1  0  1  0  0  0  0  0  0
   93.3718  100.2075  -45.2346 H   0  0  0  1  0  1  0  0  0  0  0  0
   91.6686   98.8910  -46.3961 H   0  0  0  1  0  1  0  0  0  0  0  0
   92.4999   97.8526  -45.1887 H   0  0  0  1  0  1  0  0  0  0  0  0
  1  6  1  0  0  0  0
  1  7  1  0  0  0  0
  1 18  1  0  0  0  0
  1 22  1  0  0  0  0
  2 12  1  0  0  0  0
  2 13  1  0  0  0  0
  2 15  1  0  0  0  0
  2 27  1  0  0  0  0
  3  5  2  0  0  0  0
  3  8  1  0  0  0  0
  3 20  1  0  0  0  0
  4  6  1  0  0  0  0
  4  8  2  0  0  0  0
  4 10  1  0  0  0  0
  5  9  1  0  0  0  0
  5 24  1  0  0  0  0
  6 25  1  0  0  0  0
  6 26  1  0  0  0  0
  7 11  1  0  0  0  0
  7 28  1  0  0  0  0
  7 29  1  0  0  0  0
  8 30  1  0  0  0  0
  9 10  2  0  0  0  0
  9 21  1  0  0  0  0
 10 19  1  0  0  0  0
 11 12  1  0  0  0  0
 11 31  1  0  0  0  0
 11 32  1  0  0  0  0
 12 17  1  0  0  0  0
 12 33  1  0  0  0  0
 13 14  1  0  0  0  0
 13 34  1  0  0  0  0
 13 35  1  0  0  0  0
 14 36  1  0  0  0  0
 14 37  1  0  0  0  0
 14 38  1  0  0  0  0
 15 16  1  0  0  0  0
 15 39  1  0  0  0  0
 15 40  1  0  0  0  0
 16 41  1  0  0  0  0
 16 42  1  0  0  0  0
 16 43  1  0  0  0  0
 17 18  1  0  0  0  0
 17 44  1  0  0  0  0
 17 45  1  0  0  0  0
 18 46  1  0  0  0  0
 18 47  1  0  0  0  0
 19 23  1  0  0  0  0
M  END
> <ConfScore>
-0.721809 

$$$$
4agm


 47 48  0  0  0  0  0  0  0  0999 V2000
   90.4980   98.3810  -44.6910 N   0  3  0  1  0  4  0  0  0  0  0  0
   92.0405  102.3576  -44.2461 N   0  3  0  1  0  4  0  0  0  0  0  0
   90.2060   97.4328  -49.1147 C   0  0  0  1  0  3  0  0  0  0  0  0
   89.5491   97.4149  -46.7733 C   0  0  0  1  0  3  0  0  0  0  0  0
   88.9754   97.9953  -49.4774 C   0  0  0  1  0  3  0  0  0  0  0  0
   89.9050   97.1660  -45.3350 C   0  0  0  1  0  4  0  0  0  0  0  0
   89.5430   99.5450  -44.7170 C   0  0  0  1  0  4  0  0  0  0  0  0
   90.4934   97.1445  -47.7718 C   0  0  0  1  0  3  0  0  0  0  0  0
   88.0408   98.2559  -48.4621 C   0  0  0  1  0  3  0  0  0  0  0  0
   88.2911   97.9844  -47.1038 C   0  0  0  1  0  3  0  0  0  0  0  0
   90.1750  100.7310  -44.0050 C   0  0  0  1  0  4  0  0  0  0  0  0
   91.4300  101.0810  -44.8020 C   0  0  0  1  0  4  0  0  0  0  0  0
   91.0627  103.5137  -44.3648 C   0  0  0  1  0  4  0  0  0  0  0  0
   89.7362  103.2491  -43.6737 C   0  0  0  1  0  4  0  0  0  0  0  0
   93.3664  102.6994  -44.8897 C   0  0  0  1  0  4  0  0  0  0  0  0
   94.4437  101.6528  -44.6381 C   0  0  0  1  0  4  0  0  0  0  0  0
   92.4510   99.9400  -44.6950 C   0  0  0  1  0  4  0  0  0  0  0  0
   91.8210   98.7070  -45.3220 C   0  0  0  1  0  4  0  0  0  0  0  0
   87.3594   98.2582  -46.1405 O   0  0  0  1  0  2  0  0  0  0  0  0
   91.6469   97.0135  -50.6077 I   0  0  0  1  0  1  0  0  0  0  0  0
   86.1703   99.0954  -48.9988 I   0  0  0  1  0  1  0  0  0  0  0  0
   90.6654   98.1803  -43.7171 H   0  0  0  1  0  1  0  0  0  0  0  0
   86.8476   97.4770  -45.9662 H   0  0  0  1  0  1  0  0  0  0  0  0
   88.7508   98.2231  -50.5130 H   0  0  0  1  0  1  0  0  0  0  0  0
   88.9938   96.8808  -44.7866 H   0  0  0  1  0  1  0  0  0  0  0  0
   90.6354   96.3446  -45.2859 H   0  0  0  1  0  1  0  0  0  0  0  0
   92.2147  102.2040  -43.2644 H   0  0  0  1  0  1  0  0  0  0  0  0
   88.6095   99.2654  -44.2068 H   0  0  0  1  0  1  0  0  0  0  0  0
   89.3242   99.8170  -45.7598 H   0  0  0  1  0  1  0  0  0  0  0  0
   91.4508   96.7105  -47.5059 H   0  0  0  1  0  1  0  0  0  0  0  0
   90.4413  100.4594  -42.9731 H   0  0  0  1  0  1  0  0  0  0  0  0
   89.4801  101.5838  -43.9926 H   0  0  0  1  0  1  0  0  0  0  0  0
   91.1614  101.2320  -45.8572 H   0  0  0  1  0  1  0  0  0  0  0  0
   90.8693  103.7017  -45.4320 H   0  0  0  1  0  1  0  0  0  0  0  0
   91.5197  104.4064  -43.9136 H   0  0  0  1  0  1  0  0  0  0  0  0
   89.2523  102.3738  -44.1326 H   0  0  0  1  0  1  0  0  0  0  0  0
   89.0834  104.1281  -43.7814 H   0  0  0  1  0  1  0  0  0  0  0  0
   89.9120  103.0521  -42.6053 H   0  0  0  1  0  1  0  0  0  0  0  0
   93.7131  103.6615  -44.4853 H   0  0  0  1  0  1  0  0  0  0  0  0
   93.2143  102.7908  -45.9754 H   0  0  0  1  0  1  0  0  0  0  0  0
   95.3719  101.9514  -45.1465 H   0  0  0  1  0  1  0  0  0  0  0  0
   94.1089  100.6807  -45.0298 H   0  0  0  1  0  1  0  0  0  0  0  0
   94.6292  101.5679  -43.5575 H   0  0  0  1  0  1  0  0  0  0  0  0
   92.6876   99.7454  -43.6396 H   0  0  0  1  0  1  0  0  0  0  0  0
   93.3718  100.2075  -45.2346 H   0  0  0  1  0  1  0  0  0  0  0  0
   91.6686   98.8910  -46.3961 H   0  0  0  1  0  1  0  0  0  0  0  0
   92.4999   97.8526  -45.1887 H   0  0  0  1  0  1  0  0  0  0  0  0
  1  6  1  0  0  0  0
  1  7  1  0  0  0  0
  1 18  1  0  0  0  0
  1 22  1  0  0  0  0
  2 12  1  0  0  0  0
  2 13  1  0  0  0  0
  2 15  1  0  0  0  0
  2 27  1  0  0  0  0
  3  5  2  0  0  0  0
  3  8  1  0  0  0  0
  3 20  1  0  0  0  0
  4  6  1  0  0  0  0
  4  8  2  0  0  0  0
  4 10  1  0  0  0  0
  5  9  1  0  0  0  0
  5 24  1  0  0  0  0
  6 25  1  0  0  0  0
  6 26  1  0  0  0  0
  7 11  1  0  0  0  0
  7 28  1  0  0  0  0
  7 29  1  0  0  0  0
  8 30  1  0  0  0  0
  9 10  2  0  0  0  0
  9 21  1  0  0  0  0
 10 19  1  0  0  0  0
 11 12  1  0  0  0  0
 11 31  1  0  0  0  0
 11 32  1  0  0  0  0
 12 17  1  0  0  0  0
 12 33  1  0  0  0  0
 13 14  1  0  0  0  0
 13 34  1  0  0  0  0
 13 35  1  0  0  0  0
 14 36  1  0  0  0  0
 14 37  1  0  0  0  0
 14 38  1  0  0  0  0
 15 16  1  0  0  0  0
 15 39  1  0  0  0  0
 15 40  1  0  0  0  0
 16 41  1  0  0  0  0
 16 42  1  0  0  0  0
 16 43  1  0  0  0  0
 17 18  1  0  0  0  0
 17 44  1  0  0  0  0
 17 45  1  0  0  0  0
 18 46  1  0  0  0  0
 18 47  1  0  0  0  0
 19 23  1  0  0  0  0
M  END
> <ConfScore>
-0.714662 

$$$$
4agm


 47 48  0  0  0  0  0  0  0  0999 V2000
   90.4980   98.3810  -44.6910 N   0  3  0  1  0  4  0  0  0  0  0  0
   92.0405  102.3576  -44.2461 N   0  3  0  1  0  4  0  0  0  0  0  0
   91.5400   93.8022  -46.0127 C   0  0  0  1  0  3  0  0  0  0  0  0
   90.7965   95.9656  -45.1877 C   0  0  0  1  0  3  0  0  0  0  0  0
   92.3522   93.6276  -44.8848 C   0  0  0  1  0  3  0  0  0  0  0  0
   89.9050   97.1660  -45.3350 C   0  0  0  1  0  4  0  0  0  0  0  0
   89.5430   99.5450  -44.7170 C   0  0  0  1  0  4  0  0  0  0  0  0
   90.7657   94.9625  -46.1648 C   0  0  0  1  0  3  0  0  0  0  0  0
   92.3718   94.6463  -43.9181 C   0  0  0  1  0  3  0  0  0  0  0  0
   91.6083   95.8233  -44.0315 C   0  0  0  1  0  3  0  0  0  0  0  0
   90.1750  100.7310  -44.0050 C   0  0  0  1  0  4  0  0  0  0  0  0
   91.4300  101.0810  -44.8020 C   0  0  0  1  0  4  0  0  0  0  0  0
   92.5106  102.1473  -42.8173 C   0  0  0  1  0  4  0  0  0  0  0  0
   93.5085  101.0107  -42.6766 C   0  0  0  1  0  4  0  0  0  0  0  0
   91.1043  103.5423  -44.3410 C   0  0  0  1  0  4  0  0  0  0  0  0
   91.7226  104.8385  -43.8342 C   0  0  0  1  0  4  0  0  0  0  0  0
   92.4510   99.9400  -44.6950 C   0  0  0  1  0  4  0  0  0  0  0  0
   91.8210   98.7070  -45.3220 C   0  0  0  1  0  4  0  0  0  0  0  0
   91.6468   96.7916  -43.0661 O   0  0  0  1  0  2  0  0  0  0  0  0
   91.4802   92.3001  -47.5031 I   0  0  0  1  0  1  0  0  0  0  0  0
   93.6058   94.4002  -42.2128 I   0  0  0  1  0  1  0  0  0  0  0  0
   90.6654   98.1803  -43.7171 H   0  0  0  1  0  1  0  0  0  0  0  0
   92.2833   97.4536  -43.3093 H   0  0  0  1  0  1  0  0  0  0  0  0
   92.9490   92.7313  -44.7615 H   0  0  0  1  0  1  0  0  0  0  0  0
   89.7541   97.3685  -46.4068 H   0  0  0  1  0  1  0  0  0  0  0  0
   88.9354   96.9496  -44.8621 H   0  0  0  1  0  1  0  0  0  0  0  0
   92.8516  102.5710  -44.8066 H   0  0  0  1  0  1  0  0  0  0  0  0
   88.6095   99.2654  -44.2068 H   0  0  0  1  0  1  0  0  0  0  0  0
   89.3242   99.8170  -45.7598 H   0  0  0  1  0  1  0  0  0  0  0  0
   90.1407   95.0831  -47.0426 H   0  0  0  1  0  1  0  0  0  0  0  0
   90.4413  100.4594  -42.9731 H   0  0  0  1  0  1  0  0  0  0  0  0
   89.4801  101.5838  -43.9926 H   0  0  0  1  0  1  0  0  0  0  0  0
   91.1614  101.2320  -45.8572 H   0  0  0  1  0  1  0  0  0  0  0  0
   91.6350  101.9232  -42.1889 H   0  0  0  1  0  1  0  0  0  0  0  0
   92.9854  103.0745  -42.4649 H   0  0  0  1  0  1  0  0  0  0  0  0
   93.8199  100.9248  -41.6247 H   0  0  0  1  0  1  0  0  0  0  0  0
   94.3886  101.2139  -43.3047 H   0  0  0  1  0  1  0  0  0  0  0  0
   93.0390  100.0685  -42.9976 H   0  0  0  1  0  1  0  0  0  0  0  0
   90.2067  103.3267  -43.7435 H   0  0  0  1  0  1  0  0  0  0  0  0
   90.8199  103.6791  -45.3949 H   0  0  0  1  0  1  0  0  0  0  0  0
   91.0000  105.6595  -43.9484 H   0  0  0  1  0  1  0  0  0  0  0  0
   92.6281  105.0649  -44.4167 H   0  0  0  1  0  1  0  0  0  0  0  0
   91.9880  104.7293  -42.7726 H   0  0  0  1  0  1  0  0  0  0  0  0
   92.6876   99.7454  -43.6396 H   0  0  0  1  0  1  0  0  0  0  0  0
   93.3718  100.2075  -45.2346 H   0  0  0  1  0  1  0  0  0  0  0  0
   91.6686   98.8910  -46.3961 H   0  0  0  1  0  1  0  0  0  0  0  0
   92.4999   97.8526  -45.1887 H   0  0  0  1  0  1  0  0  0  0  0  0
  1  6  1  0  0  0  0
  1  7  1  0  0  0  0
  1 18  1  0  0  0  0
  1 22  1  0  0  0  0
  2 12  1  0  0  0  0
  2 13  1  0  0  0  0
  2 15  1  0  0  0  0
  2 27  1  0  0  0  0
  3  5  2  0  0  0  0
  3  8  1  0  0  0  0
  3 20  1  0  0  0  0
  4  6  1  0  0  0  0
  4  8  2  0  0  0  0
  4 10  1  0  0  0  0
  5  9  1  0  0  0  0
  5 24  1  0  0  0  0
  6 25  1  0  0  0  0
  6 26  1  0  0  0  0
  7 11  1  0  0  0  0
  7 28  1  0  0  0  0
  7 29  1  0  0  0  0
  8 30  1  0  0  0  0
  9 10  2  0  0  0  0
  9 21  1  0  0  0  0
 10 19  1  0  0  0  0
 11 12  1  0  0  0  0
 11 31  1  0  0  0  0
 11 32  1  0  0  0  0
 12 17  1  0  0  0  0
 12 33  1  0  0  0  0
 13 14  1  0  0  0  0
 13 34  1  0  0  0  0
 13 35  1  0  0  0  0
 14 36  1  0  0  0  0
 14 37  1  0  0  0  0
 14 38  1  0  0  0  0
 15 16  1  0  0  0  0
 15 39  1  0  0  0  0
 15 40  1  0  0  0  0
 16 41  1  0  0  0  0
 16 42  1  0  0  0  0
 16 43  1  0  0  0  0
 17 18  1  0  0  0  0
 17 44  1  0  0  0  0
 17 45  1  0  0  0  0
 18 46  1  0  0  0  0
 18 47  1  0  0  0  0
 19 23  1  0  0  0  0
M  END
> <ConfScore>
-0.706159 

$$$$
4agm


 47 48  0  0  0  0  0  0  0  0999 V2000
   90.4980   98.3810  -44.6910 N   0  3  0  1  0  4  0  0  0  0  0  0
   92.0405  102.3576  -44.2461 N   0  3  0  1  0  4  0  0  0  0  0  0
   92.5688   94.5832  -46.1604 C   0  0  0  1  0  3  0  0  0  0  0  0
   90.8112   95.9735  -45.2160 C   0  0  0  1  0  3  0  0  0  0  0  0
   92.4425   93.6703  -45.1054 C   0  0  0  1  0  3  0  0  0  0  0  0
   89.9050   97.1660  -45.3350 C   0  0  0  1  0  4  0  0  0  0  0  0
   89.5430   99.5450  -44.7170 C   0  0  0  1  0  4  0  0  0  0  0  0
   91.7588   95.7276  -46.2177 C   0  0  0  1  0  3  0  0  0  0  0  0
   91.4889   93.9364  -44.1092 C   0  0  0  1  0  3  0  0  0  0  0  0
   90.6555   95.0705  -44.1314 C   0  0  0  1  0  3  0  0  0  0  0  0
   90.1750  100.7310  -44.0050 C   0  0  0  1  0  4  0  0  0  0  0  0
   91.4300  101.0810  -44.8020 C   0  0  0  1  0  4  0  0  0  0  0  0
   91.0627  103.5137  -44.3648 C   0  0  0  1  0  4  0  0  0  0  0  0
   89.7362  103.2491  -43.6737 C   0  0  0  1  0  4  0  0  0  0  0  0
   93.3664  102.6994  -44.8897 C   0  0  0  1  0  4  0  0  0  0  0  0
   94.4437  101.6528  -44.6381 C   0  0  0  1  0  4  0  0  0  0  0  0
   92.4510   99.9400  -44.6950 C   0  0  0  1  0  4  0  0  0  0  0  0
   91.8210   98.7070  -45.3220 C   0  0  0  1  0  4  0  0  0  0  0  0
   89.7323   95.2937  -43.1471 O   0  0  0  1  0  2  0  0  0  0  0  0
   93.9963   94.2328  -47.6837 I   0  0  0  1  0  1  0  0  0  0  0  0
   91.2963   92.5696  -42.5011 I   0  0  0  1  0  1  0  0  0  0  0  0
   90.6654   98.1803  -43.7171 H   0  0  0  1  0  1  0  0  0  0  0  0
   90.1073   95.8651  -42.4873 H   0  0  0  1  0  1  0  0  0  0  0  0
   93.0635   92.7831  -45.0591 H   0  0  0  1  0  1  0  0  0  0  0  0
   89.7316   97.3768  -46.4017 H   0  0  0  1  0  1  0  0  0  0  0  0
   88.9469   96.9354  -44.8458 H   0  0  0  1  0  1  0  0  0  0  0  0
   92.2147  102.2040  -43.2644 H   0  0  0  1  0  1  0  0  0  0  0  0
   88.6095   99.2654  -44.2068 H   0  0  0  1  0  1  0  0  0  0  0  0
   89.3242   99.8170  -45.7598 H   0  0  0  1  0  1  0  0  0  0  0  0
   91.8669   96.4247  -47.0412 H   0  0  0  1  0  1  0  0  0  0  0  0
   90.4413  100.4594  -42.9731 H   0  0  0  1  0  1  0  0  0  0  0  0
   89.4801  101.5838  -43.9926 H   0  0  0  1  0  1  0  0  0  0  0  0
   91.1614  101.2320  -45.8572 H   0  0  0  1  0  1  0  0  0  0  0  0
   90.8693  103.7017  -45.4320 H   0  0  0  1  0  1  0  0  0  0  0  0
   91.5197  104.4064  -43.9136 H   0  0  0  1  0  1  0  0  0  0  0  0
   89.0776  104.1217  -43.7987 H   0  0  0  1  0  1  0  0  0  0  0  0
   89.9089  103.0698  -42.6020 H   0  0  0  1  0  1  0  0  0  0  0  0
   89.2597  102.3636  -44.1211 H   0  0  0  1  0  1  0  0  0  0  0  0
   93.7131  103.6615  -44.4853 H   0  0  0  1  0  1  0  0  0  0  0  0
   93.2143  102.7908  -45.9754 H   0  0  0  1  0  1  0  0  0  0  0  0
   95.3719  101.9514  -45.1465 H   0  0  0  1  0  1  0  0  0  0  0  0
   94.1089  100.6807  -45.0298 H   0  0  0  1  0  1  0  0  0  0  0  0
   94.6292  101.5679  -43.5575 H   0  0  0  1  0  1  0  0  0  0  0  0
   92.6876   99.7454  -43.6396 H   0  0  0  1  0  1  0  0  0  0  0  0
   93.3718  100.2075  -45.2346 H   0  0  0  1  0  1  0  0  0  0  0  0
   91.6686   98.8910  -46.3961 H   0  0  0  1  0  1  0  0  0  0  0  0
   92.4999   97.8526  -45.1887 H   0  0  0  1  0  1  0  0  0  0  0  0
  1  6  1  0  0  0  0
  1  7  1  0  0  0  0
  1 18  1  0  0  0  0
  1 22  1  0  0  0  0
  2 12  1  0  0  0  0
  2 13  1  0  0  0  0
  2 15  1  0  0  0  0
  2 27  1  0  0  0  0
  3  5  2  0  0  0  0
  3  8  1  0  0  0  0
  3 20  1  0  0  0  0
  4  6  1  0  0  0  0
  4  8  2  0  0  0  0
  4 10  1  0  0  0  0
  5  9  1  0  0  0  0
  5 24  1  0  0  0  0
  6 25  1  0  0  0  0
  6 26  1  0  0  0  0
  7 11  1  0  0  0  0
  7 28  1  0  0  0  0
  7 29  1  0  0  0  0
  8 30  1  0  0  0  0
  9 10  2  0  0  0  0
  9 21  1  0  0  0  0
 10 19  1  0  0  0  0
 11 12  1  0  0  0  0
 11 31  1  0  0  0  0
 11 32  1  0  0  0  0
 12 17  1  0  0  0  0
 12 33  1  0  0  0  0
 13 14  1  0  0  0  0
 13 34  1  0  0  0  0
 13 35  1  0  0  0  0
 14 36  1  0  0  0  0
 14 37  1  0  0  0  0
 14 38  1  0  0  0  0
 15 16  1  0  0  0  0
 15 39  1  0  0  0  0
 15 40  1  0  0  0  0
 16 41  1  0  0  0  0
 16 42  1  0  0  0  0
 16 43  1  0  0  0  0
 17 18  1  0  0  0  0
 17 44  1  0  0  0  0
 17 45  1  0  0  0  0
 18 46  1  0  0  0  0
 18 47  1  0  0  0  0
 19 23  1  0  0  0  0
M  END
> <ConfScore>
-0.704283 

$$$$
4agm


 47 48  0  0  0  0  0  0  0  0999 V2000
   90.4980   98.3810  -44.6910 N   0  3  0  1  0  4  0  0  0  0  0  0
   92.0405  102.3576  -44.2461 N   0  3  0  1  0  4  0  0  0  0  0  0
   92.5688   94.5832  -46.1604 C   0  0  0  1  0  3  0  0  0  0  0  0
   90.8112   95.9735  -45.2160 C   0  0  0  1  0  3  0  0  0  0  0  0
   92.4425   93.6703  -45.1054 C   0  0  0  1  0  3  0  0  0  0  0  0
   89.9050   97.1660  -45.3350 C   0  0  0  1  0  4  0  0  0  0  0  0
   89.5430   99.5450  -44.7170 C   0  0  0  1  0  4  0  0  0  0  0  0
   91.7588   95.7276  -46.2177 C   0  0  0  1  0  3  0  0  0  0  0  0
   91.4889   93.9364  -44.1092 C   0  0  0  1  0  3  0  0  0  0  0  0
   90.6555   95.0705  -44.1314 C   0  0  0  1  0  3  0  0  0  0  0  0
   90.1750  100.7310  -44.0050 C   0  0  0  1  0  4  0  0  0  0  0  0
   91.4300  101.0810  -44.8020 C   0  0  0  1  0  4  0  0  0  0  0  0
   91.0627  103.5137  -44.3648 C   0  0  0  1  0  4  0  0  0  0  0  0
   89.7362  103.2491  -43.6737 C   0  0  0  1  0  4  0  0  0  0  0  0
   93.3664  102.6994  -44.8897 C   0  0  0  1  0  4  0  0  0  0  0  0
   94.4437  101.6528  -44.6381 C   0  0  0  1  0  4  0  0  0  0  0  0
   92.4510   99.9400  -44.6950 C   0  0  0  1  0  4  0  0  0  0  0  0
   91.8210   98.7070  -45.3220 C   0  0  0  1  0  4  0  0  0  0  0  0
   89.7323   95.2937  -43.1471 O   0  0  0  1  0  2  0  0  0  0  0  0
   93.9963   94.2328  -47.6837 I   0  0  0  1  0  1  0  0  0  0  0  0
   91.2963   92.5696  -42.5011 I   0  0  0  1  0  1  0  0  0  0  0  0
   90.6654   98.1803  -43.7171 H   0  0  0  1  0  1  0  0  0  0  0  0
   90.1073   95.8651  -42.4873 H   0  0  0  1  0  1  0  0  0  0  0  0
   93.0635   92.7831  -45.0591 H   0  0  0  1  0  1  0  0  0  0  0  0
   89.7316   97.3768  -46.4017 H   0  0  0  1  0  1  0  0  0  0  0  0
   88.9469   96.9354  -44.8458 H   0  0  0  1  0  1  0  0  0  0  0  0
   92.2147  102.2040  -43.2644 H   0  0  0  1  0  1  0  0  0  0  0  0
   88.6095   99.2654  -44.2068 H   0  0  0  1  0  1  0  0  0  0  0  0
   89.3242   99.8170  -45.7598 H   0  0  0  1  0  1  0  0  0  0  0  0
   91.8669   96.4247  -47.0412 H   0  0  0  1  0  1  0  0  0  0  0  0
   90.4413  100.4594  -42.9731 H   0  0  0  1  0  1  0  0  0  0  0  0
   89.4801  101.5838  -43.9926 H   0  0  0  1  0  1  0  0  0  0  0  0
   91.1614  101.2320  -45.8572 H   0  0  0  1  0  1  0  0  0  0  0  0
   90.8693  103.7017  -45.4320 H   0  0  0  1  0  1  0  0  0  0  0  0
   91.5197  104.4064  -43.9136 H   0  0  0  1  0  1  0  0  0  0  0  0
   89.2523  102.3738  -44.1326 H   0  0  0  1  0  1  0  0  0  0  0  0
   89.0834  104.1281  -43.7814 H   0  0  0  1  0  1  0  0  0  0  0  0
   89.9120  103.0521  -42.6053 H   0  0  0  1  0  1  0  0  0  0  0  0
   93.7131  103.6615  -44.4853 H   0  0  0  1  0  1  0  0  0  0  0  0
   93.2143  102.7908  -45.9754 H   0  0  0  1  0  1  0  0  0  0  0  0
   95.3719  101.9514  -45.1465 H   0  0  0  1  0  1  0  0  0  0  0  0
   94.1089  100.6807  -45.0298 H   0  0  0  1  0  1  0  0  0  0  0  0
   94.6292  101.5679  -43.5575 H   0  0  0  1  0  1  0  0  0  0  0  0
   92.6876   99.7454  -43.6396 H   0  0  0  1  0  1  0  0  0  0  0  0
   93.3718  100.2075  -45.2346 H   0  0  0  1  0  1  0  0  0  0  0  0
   91.6686   98.8910  -46.3961 H   0  0  0  1  0  1  0  0  0  0  0  0
   92.4999   97.8526  -45.1887 H   0  0  0  1  0  1  0  0  0  0  0  0
  1  6  1  0  0  0  0
  1  7  1  0  0  0  0
  1 18  1  0  0  0  0
  1 22  1  0  0  0  0
  2 12  1  0  0  0  0
  2 13  1  0  0  0  0
  2 15  1  0  0  0  0
  2 27  1  0  0  0  0
  3  5  2  0  0  0  0
  3  8  1  0  0  0  0
  3 20  1  0  0  0  0
  4  6  1  0  0  0  0
  4  8  2  0  0  0  0
  4 10  1  0  0  0  0
  5  9  1  0  0  0  0
  5 24  1  0  0  0  0
  6 25  1  0  0  0  0
  6 26  1  0  0  0  0
  7 11  1  0  0  0  0
  7 28  1  0  0  0  0
  7 29  1  0  0  0  0
  8 30  1  0  0  0  0
  9 10  2  0  0  0  0
  9 21  1  0  0  0  0
 10 19  1  0  0  0  0
 11 12  1  0  0  0  0
 11 31  1  0  0  0  0
 11 32  1  0  0  0  0
 12 17  1  0  0  0  0
 12 33  1  0  0  0  0
 13 14  1  0  0  0  0
 13 34  1  0  0  0  0
 13 35  1  0  0  0  0
 14 36  1  0  0  0  0
 14 37  1  0  0  0  0
 14 38  1  0  0  0  0
 15 16  1  0  0  0  0
 15 39  1  0  0  0  0
 15 40  1  0  0  0  0
 16 41  1  0  0  0  0
 16 42  1  0  0  0  0
 16 43  1  0  0  0  0
 17 18  1  0  0  0  0
 17 44  1  0  0  0  0
 17 45  1  0  0  0  0
 18 46  1  0  0  0  0
 18 47  1  0  0  0  0
 19 23  1  0  0  0  0
M  END
> <ConfScore>
-0.704283 

$$$$
4agm


 47 48  0  0  0  0  0  0  0  0999 V2000
   90.4980   98.3810  -44.6910 N   0  3  0  1  0  4  0  0  0  0  0  0
   92.0405  102.3576  -44.2461 N   0  3  0  1  0  4  0  0  0  0  0  0
   92.0505   94.1766  -46.2881 C   0  0  0  1  0  3  0  0  0  0  0  0
   90.8112   95.9735  -45.2160 C   0  0  0  1  0  3  0  0  0  0  0  0
   92.4036   93.6472  -45.0401 C   0  0  0  1  0  3  0  0  0  0  0  0
   89.9050   97.1660  -45.3350 C   0  0  0  1  0  4  0  0  0  0  0  0
   89.5430   99.5450  -44.7170 C   0  0  0  1  0  4  0  0  0  0  0  0
   91.2588   95.3317  -46.3777 C   0  0  0  1  0  3  0  0  0  0  0  0
   91.9476   94.3071  -43.8872 C   0  0  0  1  0  3  0  0  0  0  0  0
   91.1497   95.4657  -43.9340 C   0  0  0  1  0  3  0  0  0  0  0  0
   90.1750  100.7310  -44.0050 C   0  0  0  1  0  4  0  0  0  0  0  0
   91.4300  101.0810  -44.8020 C   0  0  0  1  0  4  0  0  0  0  0  0
   91.0627  103.5137  -44.3648 C   0  0  0  1  0  4  0  0  0  0  0  0
   89.7362  103.2491  -43.6737 C   0  0  0  1  0  4  0  0  0  0  0  0
   93.3664  102.6994  -44.8897 C   0  0  0  1  0  4  0  0  0  0  0  0
   94.4437  101.6528  -44.6381 C   0  0  0  1  0  4  0  0  0  0  0  0
   92.4510   99.9400  -44.6950 C   0  0  0  1  0  4  0  0  0  0  0  0
   91.8210   98.7070  -45.3220 C   0  0  0  1  0  4  0  0  0  0  0  0
   90.7175   96.0780  -42.7898 O   0  0  0  1  0  2  0  0  0  0  0  0
   92.7183   93.2244  -48.0568 I   0  0  0  1  0  1  0  0  0  0  0  0
   92.4849   93.5235  -41.9928 I   0  0  0  1  0  1  0  0  0  0  0  0
   90.6654   98.1803  -43.7171 H   0  0  0  1  0  1  0  0  0  0  0  0
   91.3180   96.7778  -42.5609 H   0  0  0  1  0  1  0  0  0  0  0  0
   93.0118   92.7531  -44.9663 H   0  0  0  1  0  1  0  0  0  0  0  0
   89.7316   97.3768  -46.4017 H   0  0  0  1  0  1  0  0  0  0  0  0
   88.9469   96.9354  -44.8458 H   0  0  0  1  0  1  0  0  0  0  0  0
   92.2147  102.2040  -43.2644 H   0  0  0  1  0  1  0  0  0  0  0  0
   88.6095   99.2654  -44.2068 H   0  0  0  1  0  1  0  0  0  0  0  0
   89.3242   99.8170  -45.7598 H   0  0  0  1  0  1  0  0  0  0  0  0
   90.9923   95.7292  -47.3507 H   0  0  0  1  0  1  0  0  0  0  0  0
   90.4413  100.4594  -42.9731 H   0  0  0  1  0  1  0  0  0  0  0  0
   89.4801  101.5838  -43.9926 H   0  0  0  1  0  1  0  0  0  0  0  0
   91.1614  101.2320  -45.8572 H   0  0  0  1  0  1  0  0  0  0  0  0
   90.8693  103.7017  -45.4320 H   0  0  0  1  0  1  0  0  0  0  0  0
   91.5197  104.4064  -43.9136 H   0  0  0  1  0  1  0  0  0  0  0  0
   89.2523  102.3738  -44.1326 H   0  0  0  1  0  1  0  0  0  0  0  0
   89.0834  104.1281  -43.7814 H   0  0  0  1  0  1  0  0  0  0  0  0
   89.9120  103.0521  -42.6053 H   0  0  0  1  0  1  0  0  0  0  0  0
   93.7131  103.6615  -44.4853 H   0  0  0  1  0  1  0  0  0  0  0  0
   93.2143  102.7908  -45.9754 H   0  0  0  1  0  1  0  0  0  0  0  0
   95.3719  101.9514  -45.1465 H   0  0  0  1  0  1  0  0  0  0  0  0
   94.1089  100.6807  -45.0298 H   0  0  0  1  0  1  0  0  0  0  0  0
   94.6292  101.5679  -43.5575 H   0  0  0  1  0  1  0  0  0  0  0  0
   92.6876   99.7454  -43.6396 H   0  0  0  1  0  1  0  0  0  0  0  0
   93.3718  100.2075  -45.2346 H   0  0  0  1  0  1  0  0  0  0  0  0
   91.6686   98.8910  -46.3961 H   0  0  0  1  0  1  0  0  0  0  0  0
   92.4999   97.8526  -45.1887 H   0  0  0  1  0  1  0  0  0  0  0  0
  1  6  1  0  0  0  0
  1  7  1  0  0  0  0
  1 18  1  0  0  0  0
  1 22  1  0  0  0  0
  2 12  1  0  0  0  0
  2 13  1  0  0  0  0
  2 15  1  0  0  0  0
  2 27  1  0  0  0  0
  3  5  2  0  0  0  0
  3  8  1  0  0  0  0
  3 20  1  0  0  0  0
  4  6  1  0  0  0  0
  4  8  2  0  0  0  0
  4 10  1  0  0  0  0
  5  9  1  0  0  0  0
  5 24  1  0  0  0  0
  6 25  1  0  0  0  0
  6 26  1  0  0  0  0
  7 11  1  0  0  0  0
  7 28  1  0  0  0  0
  7 29  1  0  0  0  0
  8 30  1  0  0  0  0
  9 10  2  0  0  0  0
  9 21  1  0  0  0  0
 10 19  1  0  0  0  0
 11 12  1  0  0  0  0
 11 31  1  0  0  0  0
 11 32  1  0  0  0  0
 12 17  1  0  0  0  0
 12 33  1  0  0  0  0
 13 14  1  0  0  0  0
 13 34  1  0  0  0  0
 13 35  1  0  0  0  0
 14 36  1  0  0  0  0
 14 37  1  0  0  0  0
 14 38  1  0  0  0  0
 15 16  1  0  0  0  0
 15 39  1  0  0  0  0
 15 40  1  0  0  0  0
 16 41  1  0  0  0  0
 16 42  1  0  0  0  0
 16 43  1  0  0  0  0
 17 18  1  0  0  0  0
 17 44  1  0  0  0  0
 17 45  1  0  0  0  0
 18 46  1  0  0  0  0
 18 47  1  0  0  0  0
 19 23  1  0  0  0  0
M  END
> <ConfScore>
-0.701575 

$$$$
4agm


 47 48  0  0  0  0  0  0  0  0999 V2000
   90.4980   98.3810  -44.6910 N   0  3  0  1  0  4  0  0  0  0  0  0
   92.0405  102.3576  -44.2461 N   0  3  0  1  0  4  0  0  0  0  0  0
   92.0505   94.1766  -46.2881 C   0  0  0  1  0  3  0  0  0  0  0  0
   90.8112   95.9735  -45.2160 C   0  0  0  1  0  3  0  0  0  0  0  0
   92.4036   93.6472  -45.0401 C   0  0  0  1  0  3  0  0  0  0  0  0
   89.9050   97.1660  -45.3350 C   0  0  0  1  0  4  0  0  0  0  0  0
   89.5430   99.5450  -44.7170 C   0  0  0  1  0  4  0  0  0  0  0  0
   91.2588   95.3317  -46.3777 C   0  0  0  1  0  3  0  0  0  0  0  0
   91.9476   94.3071  -43.8872 C   0  0  0  1  0  3  0  0  0  0  0  0
   91.1497   95.4657  -43.9340 C   0  0  0  1  0  3  0  0  0  0  0  0
   90.1750  100.7310  -44.0050 C   0  0  0  1  0  4  0  0  0  0  0  0
   91.4300  101.0810  -44.8020 C   0  0  0  1  0  4  0  0  0  0  0  0
   91.0627  103.5137  -44.3648 C   0  0  0  1  0  4  0  0  0  0  0  0
   89.7043  103.2138  -43.7547 C   0  0  0  1  0  4  0  0  0  0  0  0
   93.3664  102.6994  -44.8897 C   0  0  0  1  0  4  0  0  0  0  0  0
   94.3909  101.5773  -44.7870 C   0  0  0  1  0  4  0  0  0  0  0  0
   92.4510   99.9400  -44.6950 C   0  0  0  1  0  4  0  0  0  0  0  0
   91.8210   98.7070  -45.3220 C   0  0  0  1  0  4  0  0  0  0  0  0
   90.7175   96.0780  -42.7898 O   0  0  0  1  0  2  0  0  0  0  0  0
   92.7183   93.2244  -48.0568 I   0  0  0  1  0  1  0  0  0  0  0  0
   92.4849   93.5235  -41.9928 I   0  0  0  1  0  1  0  0  0  0  0  0
   90.6654   98.1803  -43.7171 H   0  0  0  1  0  1  0  0  0  0  0  0
   91.3180   96.7778  -42.5609 H   0  0  0  1  0  1  0  0  0  0  0  0
   93.0118   92.7531  -44.9663 H   0  0  0  1  0  1  0  0  0  0  0  0
   89.7316   97.3768  -46.4017 H   0  0  0  1  0  1  0  0  0  0  0  0
   88.9469   96.9354  -44.8458 H   0  0  0  1  0  1  0  0  0  0  0  0
   92.2147  102.2040  -43.2644 H   0  0  0  1  0  1  0  0  0  0  0  0
   88.6095   99.2654  -44.2068 H   0  0  0  1  0  1  0  0  0  0  0  0
   89.3242   99.8170  -45.7598 H   0  0  0  1  0  1  0  0  0  0  0  0
   90.9923   95.7292  -47.3507 H   0  0  0  1  0  1  0  0  0  0  0  0
   90.4413  100.4594  -42.9731 H   0  0  0  1  0  1  0  0  0  0  0  0
   89.4801  101.5838  -43.9926 H   0  0  0  1  0  1  0  0  0  0  0  0
   91.1614  101.2320  -45.8572 H   0  0  0  1  0  1  0  0  0  0  0  0
   90.9228  103.7470  -45.4314 H   0  0  0  1  0  1  0  0  0  0  0  0
   91.4904  104.3878  -43.8527 H   0  0  0  1  0  1  0  0  0  0  0  0
   89.8250  102.9902  -42.6840 H   0  0  0  1  0  1  0  0  0  0  0  0
   89.2560  102.3470  -44.2626 H   0  0  0  1  0  1  0  0  0  0  0  0
   89.0473  104.0886  -43.8742 H   0  0  0  1  0  1  0  0  0  0  0  0
   93.7753  103.5919  -44.3941 H   0  0  0  1  0  1  0  0  0  0  0  0
   93.1921  102.9176  -45.9538 H   0  0  0  1  0  1  0  0  0  0  0  0
   95.3209  101.8818  -45.2886 H   0  0  0  1  0  1  0  0  0  0  0  0
   93.9936  100.6728  -45.2714 H   0  0  0  1  0  1  0  0  0  0  0  0
   94.5987  101.3644  -43.7283 H   0  0  0  1  0  1  0  0  0  0  0  0
   92.6876   99.7454  -43.6396 H   0  0  0  1  0  1  0  0  0  0  0  0
   93.3718  100.2075  -45.2346 H   0  0  0  1  0  1  0  0  0  0  0  0
   91.6686   98.8910  -46.3961 H   0  0  0  1  0  1  0  0  0  0  0  0
   92.4999   97.8526  -45.1887 H   0  0  0  1  0  1  0  0  0  0  0  0
  1  6  1  0  0  0  0
  1  7  1  0  0  0  0
  1 18  1  0  0  0  0
  1 22  1  0  0  0  0
  2 12  1  0  0  0  0
  2 13  1  0  0  0  0
  2 15  1  0  0  0  0
  2 27  1  0  0  0  0
  3  5  2  0  0  0  0
  3  8  1  0  0  0  0
  3 20  1  0  0  0  0
  4  6  1  0  0  0  0
  4  8  2  0  0  0  0
  4 10  1  0  0  0  0
  5  9  1  0  0  0  0
  5 24  1  0  0  0  0
  6 25  1  0  0  0  0
  6 26  1  0  0  0  0
  7 11  1  0  0  0  0
  7 28  1  0  0  0  0
  7 29  1  0  0  0  0
  8 30  1  0  0  0  0
  9 10  2  0  0  0  0
  9 21  1  0  0  0  0
 10 19  1  0  0  0  0
 11 12  1  0  0  0  0
 11 31  1  0  0  0  0
 11 32  1  0  0  0  0
 12 17  1  0  0  0  0
 12 33  1  0  0  0  0
 13 14  1  0  0  0  0
 13 34  1  0  0  0  0
 13 35  1  0  0  0  0
 14 36  1  0  0  0  0
 14 37  1  0  0  0  0
 14 38  1  0  0  0  0
 15 16  1  0  0  0  0
 15 39  1  0  0  0  0
 15 40  1  0  0  0  0
 16 41  1  0  0  0  0
 16 42  1  0  0  0  0
 16 43  1  0  0  0  0
 17 18  1  0  0  0  0
 17 44  1  0  0  0  0
 17 45  1  0  0  0  0
 18 46  1  0  0  0  0
 18 47  1  0  0  0  0
 19 23  1  0  0  0  0
M  END
> <ConfScore>
-0.701575 

$$$$
4agm


 47 48  0  0  0  0  0  0  0  0999 V2000
   90.4980   98.3810  -44.6910 N   0  3  0  1  0  4  0  0  0  0  0  0
   92.0405  102.3576  -44.2461 N   0  3  0  1  0  4  0  0  0  0  0  0
   92.0217   94.1550  -46.2846 C   0  0  0  1  0  3  0  0  0  0  0  0
   90.8112   95.9735  -45.2160 C   0  0  0  1  0  3  0  0  0  0  0  0
   92.4023   93.6467  -45.0360 C   0  0  0  1  0  3  0  0  0  0  0  0
   89.9050   97.1660  -45.3350 C   0  0  0  1  0  4  0  0  0  0  0  0
   89.5430   99.5450  -44.7170 C   0  0  0  1  0  4  0  0  0  0  0  0
   91.2305   95.3104  -46.3763 C   0  0  0  1  0  3  0  0  0  0  0  0
   91.9745   94.3278  -43.8847 C   0  0  0  1  0  3  0  0  0  0  0  0
   91.1781   95.4873  -43.9334 C   0  0  0  1  0  3  0  0  0  0  0  0
   90.1750  100.7310  -44.0050 C   0  0  0  1  0  4  0  0  0  0  0  0
   91.4300  101.0810  -44.8020 C   0  0  0  1  0  4  0  0  0  0  0  0
   92.4671  102.1613  -42.8017 C   0  0  0  1  0  4  0  0  0  0  0  0
   93.4462  101.0146  -42.6173 C   0  0  0  1  0  4  0  0  0  0  0  0
   91.1224  103.5522  -44.3836 C   0  0  0  1  0  4  0  0  0  0  0  0
   90.8135  103.9087  -45.8316 C   0  0  0  1  0  4  0  0  0  0  0  0
   92.4510   99.9400  -44.6950 C   0  0  0  1  0  4  0  0  0  0  0  0
   91.8210   98.7070  -45.3220 C   0  0  0  1  0  4  0  0  0  0  0  0
   90.7738   96.1207  -42.7905 O   0  0  0  1  0  2  0  0  0  0  0  0
   92.6464   93.1703  -48.0513 I   0  0  0  1  0  1  0  0  0  0  0  0
   92.5538   93.5762  -41.9897 I   0  0  0  1  0  1  0  0  0  0  0  0
   90.6654   98.1803  -43.7171 H   0  0  0  1  0  1  0  0  0  0  0  0
   91.3809   96.8229  -42.5879 H   0  0  0  1  0  1  0  0  0  0  0  0
   93.0102   92.7524  -44.9605 H   0  0  0  1  0  1  0  0  0  0  0  0
   89.7316   97.3768  -46.4017 H   0  0  0  1  0  1  0  0  0  0  0  0
   88.9469   96.9354  -44.8458 H   0  0  0  1  0  1  0  0  0  0  0  0
   92.8698  102.5533  -44.7860 H   0  0  0  1  0  1  0  0  0  0  0  0
   88.6095   99.2654  -44.2068 H   0  0  0  1  0  1  0  0  0  0  0  0
   89.3242   99.8170  -45.7598 H   0  0  0  1  0  1  0  0  0  0  0  0
   90.9424   95.6914  -47.3497 H   0  0  0  1  0  1  0  0  0  0  0  0
   90.4413  100.4594  -42.9731 H   0  0  0  1  0  1  0  0  0  0  0  0
   89.4801  101.5838  -43.9926 H   0  0  0  1  0  1  0  0  0  0  0  0
   91.1614  101.2320  -45.8572 H   0  0  0  1  0  1  0  0  0  0  0  0
   91.5713  101.9567  -42.1957 H   0  0  0  1  0  1  0  0  0  0  0  0
   92.9433  103.0874  -42.4484 H   0  0  0  1  0  1  0  0  0  0  0  0
   94.3462  101.2005  -43.2225 H   0  0  0  1  0  1  0  0  0  0  0  0
   92.9755  100.0735  -42.9386 H   0  0  0  1  0  1  0  0  0  0  0  0
   93.7277  100.9397  -41.5559 H   0  0  0  1  0  1  0  0  0  0  0  0
   91.6026  104.4184  -43.9056 H   0  0  0  1  0  1  0  0  0  0  0  0
   90.1763  103.3266  -43.8694 H   0  0  0  1  0  1  0  0  0  0  0  0
   90.1296  104.7694  -45.8603 H   0  0  0  1  0  1  0  0  0  0  0  0
   90.3396  103.0486  -46.3278 H   0  0  0  1  0  1  0  0  0  0  0  0
   91.7463  104.1648  -46.3547 H   0  0  0  1  0  1  0  0  0  0  0  0
   92.6876   99.7454  -43.6396 H   0  0  0  1  0  1  0  0  0  0  0  0
   93.3718  100.2075  -45.2346 H   0  0  0  1  0  1  0  0  0  0  0  0
   91.6686   98.8910  -46.3961 H   0  0  0  1  0  1  0  0  0  0  0  0
   92.4999   97.8526  -45.1887 H   0  0  0  1  0  1  0  0  0  0  0  0
  1  6  1  0  0  0  0
  1  7  1  0  0  0  0
  1 18  1  0  0  0  0
  1 22  1  0  0  0  0
  2 12  1  0  0  0  0
  2 13  1  0  0  0  0
  2 15  1  0  0  0  0
  2 27  1  0  0  0  0
  3  5  2  0  0  0  0
  3  8  1  0  0  0  0
  3 20  1  0  0  0  0
  4  6  1  0  0  0  0
  4  8  2  0  0  0  0
  4 10  1  0  0  0  0
  5  9  1  0  0  0  0
  5 24  1  0  0  0  0
  6 25  1  0  0  0  0
  6 26  1  0  0  0  0
  7 11  1  0  0  0  0
  7 28  1  0  0  0  0
  7 29  1  0  0  0  0
  8 30  1  0  0  0  0
  9 10  2  0  0  0  0
  9 21  1  0  0  0  0
 10 19  1  0  0  0  0
 11 12  1  0  0  0  0
 11 31  1  0  0  0  0
 11 32  1  0  0  0  0
 12 17  1  0  0  0  0
 12 33  1  0  0  0  0
 13 14  1  0  0  0  0
 13 34  1  0  0  0  0
 13 35  1  0  0  0  0
 14 36  1  0  0  0  0
 14 37  1  0  0  0  0
 14 38  1  0  0  0  0
 15 16  1  0  0  0  0
 15 39  1  0  0  0  0
 15 40  1  0  0  0  0
 16 41  1  0  0  0  0
 16 42  1  0  0  0  0
 16 43  1  0  0  0  0
 17 18  1  0  0  0  0
 17 44  1  0  0  0  0
 17 45  1  0  0  0  0
 18 46  1  0  0  0  0
 18 47  1  0  0  0  0
 19 23  1  0  0  0  0
M  END
> <ConfScore>
-0.700148 

$$$$
4agm


 47 48  0  0  0  0  0  0  0  0999 V2000
   90.4980   98.3810  -44.6910 N   0  3  0  1  0  4  0  0  0  0  0  0
   92.0405  102.3576  -44.2461 N   0  3  0  1  0  4  0  0  0  0  0  0
   88.1620   98.0277  -48.6011 C   0  0  0  1  0  3  0  0  0  0  0  0
   89.6638   97.3748  -46.8032 C   0  0  0  1  0  3  0  0  0  0  0  0
   89.1137   97.6558  -49.5594 C   0  0  0  1  0  3  0  0  0  0  0  0
   89.9050   97.1660  -45.3350 C   0  0  0  1  0  4  0  0  0  0  0  0
   89.5430   99.5450  -44.7170 C   0  0  0  1  0  4  0  0  0  0  0  0
   88.4329   97.8881  -47.2313 C   0  0  0  1  0  3  0  0  0  0  0  0
   90.3428   97.1463  -49.1099 C   0  0  0  1  0  3  0  0  0  0  0  0
   90.6525   96.9878  -47.7460 C   0  0  0  1  0  3  0  0  0  0  0  0
   90.1750  100.7310  -44.0050 C   0  0  0  1  0  4  0  0  0  0  0  0
   91.4300  101.0810  -44.8020 C   0  0  0  1  0  4  0  0  0  0  0  0
   91.0627  103.5137  -44.3648 C   0  0  0  1  0  4  0  0  0  0  0  0
   89.7362  103.2491  -43.6737 C   0  0  0  1  0  4  0  0  0  0  0  0
   93.3664  102.6994  -44.8897 C   0  0  0  1  0  4  0  0  0  0  0  0
   94.4437  101.6528  -44.6381 C   0  0  0  1  0  4  0  0  0  0  0  0
   92.4510   99.9400  -44.6950 C   0  0  0  1  0  4  0  0  0  0  0  0
   91.8210   98.7070  -45.3220 C   0  0  0  1  0  4  0  0  0  0  0  0
   91.8579   96.4812  -47.3447 O   0  0  0  1  0  2  0  0  0  0  0  0
   86.2961   98.8083  -49.2257 I   0  0  0  1  0  1  0  0  0  0  0  0
   91.7961   96.5915  -50.5492 I   0  0  0  1  0  1  0  0  0  0  0  0
   90.6654   98.1803  -43.7171 H   0  0  0  1  0  1  0  0  0  0  0  0
   92.4553   97.1969  -47.1619 H   0  0  0  1  0  1  0  0  0  0  0  0
   88.9071   97.7584  -50.6185 H   0  0  0  1  0  1  0  0  0  0  0  0
   88.9460   96.9354  -44.8455 H   0  0  0  1  0  1  0  0  0  0  0  0
   90.5967   96.3204  -45.2045 H   0  0  0  1  0  1  0  0  0  0  0  0
   92.2147  102.2040  -43.2644 H   0  0  0  1  0  1  0  0  0  0  0  0
   88.6095   99.2654  -44.2068 H   0  0  0  1  0  1  0  0  0  0  0  0
   89.3242   99.8170  -45.7598 H   0  0  0  1  0  1  0  0  0  0  0  0
   87.6860   98.1789  -46.5010 H   0  0  0  1  0  1  0  0  0  0  0  0
   90.4413  100.4594  -42.9731 H   0  0  0  1  0  1  0  0  0  0  0  0
   89.4801  101.5838  -43.9926 H   0  0  0  1  0  1  0  0  0  0  0  0
   91.1614  101.2320  -45.8572 H   0  0  0  1  0  1  0  0  0  0  0  0
   90.8693  103.7017  -45.4320 H   0  0  0  1  0  1  0  0  0  0  0  0
   91.5197  104.4064  -43.9136 H   0  0  0  1  0  1  0  0  0  0  0  0
   89.0776  104.1217  -43.7987 H   0  0  0  1  0  1  0  0  0  0  0  0
   89.9089  103.0698  -42.6020 H   0  0  0  1  0  1  0  0  0  0  0  0
   89.2597  102.3636  -44.1211 H   0  0  0  1  0  1  0  0  0  0  0  0
   93.7131  103.6615  -44.4853 H   0  0  0  1  0  1  0  0  0  0  0  0
   93.2143  102.7908  -45.9754 H   0  0  0  1  0  1  0  0  0  0  0  0
   95.3719  101.9514  -45.1465 H   0  0  0  1  0  1  0  0  0  0  0  0
   94.1089  100.6807  -45.0298 H   0  0  0  1  0  1  0  0  0  0  0  0
   94.6292  101.5679  -43.5575 H   0  0  0  1  0  1  0  0  0  0  0  0
   92.6876   99.7454  -43.6396 H   0  0  0  1  0  1  0  0  0  0  0  0
   93.3718  100.2075  -45.2346 H   0  0  0  1  0  1  0  0  0  0  0  0
   91.6686   98.8910  -46.3961 H   0  0  0  1  0  1  0  0  0  0  0  0
   92.4999   97.8526  -45.1887 H   0  0  0  1  0  1  0  0  0  0  0  0
  1  6  1  0  0  0  0
  1  7  1  0  0  0  0
  1 18  1  0  0  0  0
  1 22  1  0  0  0  0
  2 12  1  0  0  0  0
  2 13  1  0  0  0  0
  2 15  1  0  0  0  0
  2 27  1  0  0  0  0
  3  5  2  0  0  0  0
  3  8  1  0  0  0  0
  3 20  1  0  0  0  0
  4  6  1  0  0  0  0
  4  8  2  0  0  0  0
  4 10  1  0  0  0  0
  5  9  1  0  0  0  0
  5 24  1  0  0  0  0
  6 25  1  0  0  0  0
  6 26  1  0  0  0  0
  7 11  1  0  0  0  0
  7 28  1  0  0  0  0
  7 29  1  0  0  0  0
  8 30  1  0  0  0  0
  9 10  2  0  0  0  0
  9 21  1  0  0  0  0
 10 19  1  0  0  0  0
 11 12  1  0  0  0  0
 11 31  1  0  0  0  0
 11 32  1  0  0  0  0
 12 17  1  0  0  0  0
 12 33  1  0  0  0  0
 13 14  1  0  0  0  0
 13 34  1  0  0  0  0
 13 35  1  0  0  0  0
 14 36  1  0  0  0  0
 14 37  1  0  0  0  0
 14 38  1  0  0  0  0
 15 16  1  0  0  0  0
 15 39  1  0  0  0  0
 15 40  1  0  0  0  0
 16 41  1  0  0  0  0
 16 42  1  0  0  0  0
 16 43  1  0  0  0  0
 17 18  1  0  0  0  0
 17 44  1  0  0  0  0
 17 45  1  0  0  0  0
 18 46  1  0  0  0  0
 18 47  1  0  0  0  0
 19 23  1  0  0  0  0
M  END
> <ConfScore>
-0.695708 

$$$$
4agm


 47 48  0  0  0  0  0  0  0  0999 V2000
  123.9590  107.7800  -44.6740 N   0  3  0  1  0  4  0  0  0  0  0  0
  125.6880  111.7520  -44.3740 N   0  3  0  1  0  4  0  0  0  0  0  0
  124.2732  102.9329  -45.1298 C   0  0  0  1  0  3  0  0  0  0  0  0
  123.8338  105.3020  -44.8040 C   0  0  0  1  0  3  0  0  0  0  0  0
  124.6708  102.8008  -43.7934 C   0  0  0  1  0  3  0  0  0  0  0  0
  123.3160  106.6050  -45.3430 C   0  0  0  1  0  4  0  0  0  0  0  0
  123.0630  108.9900  -44.6940 C   0  0  0  1  0  4  0  0  0  0  0  0
  123.8561  104.1745  -45.6340 C   0  0  0  1  0  3  0  0  0  0  0  0
  124.6444  103.9443  -42.9785 C   0  0  0  1  0  3  0  0  0  0  0  0
  124.2308  105.2061  -43.4439 C   0  0  0  1  0  3  0  0  0  0  0  0
  123.7430  110.1330  -43.9560 C   0  0  0  1  0  4  0  0  0  0  0  0
  125.0240  110.4320  -44.7320 C   0  0  0  1  0  4  0  0  0  0  0  0
  126.1114  111.7592  -42.9155 C   0  0  0  1  0  4  0  0  0  0  0  0
  127.1197  110.6739  -42.5795 C   0  0  0  1  0  4  0  0  0  0  0  0
  124.8188  112.9486  -44.6931 C   0  0  0  1  0  4  0  0  0  0  0  0
  125.4928  114.2793  -44.3866 C   0  0  0  1  0  4  0  0  0  0  0  0
  125.9860  109.2400  -44.6290 C   0  0  0  1  0  4  0  0  0  0  0  0
  125.3050  108.0490  -45.2830 C   0  0  0  1  0  4  0  0  0  0  0  0
  124.2362  106.3291  -42.6630 O   0  0  0  1  0  2  0  0  0  0  0  0
  124.3019  101.2733  -46.4435 I   0  0  0  1  0  1  0  0  0  0  0  0
  125.2110  103.7485  -40.9458 I   0  0  0  1  0  1  0  0  0  0  0  0
  124.1080  107.5360  -43.7070 H   0  0  0  1  0  1  0  0  0  0  0  0
  124.5232  106.1018  -41.7863 H   0  0  0  1  0  1  0  0  0  0  0  0
  124.9909  101.8432  -43.3994 H   0  0  0  1  0  1  0  0  0  0  0  0
  122.2284  106.6519  -45.1775 H   0  0  0  1  0  1  0  0  0  0  0  0
  123.5245  106.6521  -46.4223 H   0  0  0  1  0  1  0  0  0  0  0  0
  126.5227  111.8298  -44.9351 H   0  0  0  1  0  1  0  0  0  0  0  0
  122.1100  108.7500  -44.2000 H   0  0  0  1  0  1  0  0  0  0  0  0
  122.8710  109.2880  -45.7350 H   0  0  0  1  0  1  0  0  0  0  0  0
  123.5501  104.2609  -46.6707 H   0  0  0  1  0  1  0  0  0  0  0  0
  123.9820  109.8340  -42.9250 H   0  0  0  1  0  1  0  0  0  0  0  0
  123.0910  111.0190  -43.9380 H   0  0  0  1  0  1  0  0  0  0  0  0
  124.7340  110.5160  -45.7890 H   0  0  0  1  0  1  0  0  0  0  0  0
  125.2179  111.6118  -42.2897 H   0  0  0  1  0  1  0  0  0  0  0  0
  126.5607  112.7364  -42.6862 H   0  0  0  1  0  1  0  0  0  0  0  0
  127.3950  110.7461  -41.5165 H   0  0  0  1  0  1  0  0  0  0  0  0
  128.0185  110.8014  -43.2011 H   0  0  0  1  0  1  0  0  0  0  0  0
  126.6752  109.6865  -42.7764 H   0  0  0  1  0  1  0  0  0  0  0  0
  123.8967  112.8789  -44.0980 H   0  0  0  1  0  1  0  0  0  0  0  0
  124.5677  112.9221  -45.7639 H   0  0  0  1  0  1  0  0  0  0  0  0
  126.4231  114.3623  -44.9670 H   0  0  0  1  0  1  0  0  0  0  0  0
  125.7260  114.3333  -43.3127 H   0  0  0  1  0  1  0  0  0  0  0  0
  124.8179  115.1045  -44.6566 H   0  0  0  1  0  1  0  0  0  0  0  0
  126.1990  109.0180  -43.5740 H   0  0  0  1  0  1  0  0  0  0  0  0
  126.9260  109.4690  -45.1530 H   0  0  0  1  0  1  0  0  0  0  0  0
  125.1760  108.2560  -46.3560 H   0  0  0  1  0  1  0  0  0  0  0  0
  125.9390  107.1600  -45.1550 H   0  0  0  1  0  1  0  0  0  0  0  0
  1  6  1  0  0  0  0
  1  7  1  0  0  0  0
  1 18  1  0  0  0  0
  1 22  1  0  0  0  0
  2 12  1  0  0  0  0
  2 13  1  0  0  0  0
  2 15  1  0  0  0  0
  2 27  1  0  0  0  0
  3  5  2  0  0  0  0
  3  8  1  0  0  0  0
  3 20  1  0  0  0  0
  4  6  1  0  0  0  0
  4  8  2  0  0  0  0
  4 10  1  0  0  0  0
  5  9  1  0  0  0  0
  5 24  1  0  0  0  0
  6 25  1  0  0  0  0
  6 26  1  0  0  0  0
  7 11  1  0  0  0  0
  7 28  1  0  0  0  0
  7 29  1  0  0  0  0
  8 30  1  0  0  0  0
  9 10  2  0  0  0  0
  9 21  1  0  0  0  0
 10 19  1  0  0  0  0
 11 12  1  0  0  0  0
 11 31  1  0  0  0  0
 11 32  1  0  0  0  0
 12 17  1  0  0  0  0
 12 33  1  0  0  0  0
 13 14  1  0  0  0  0
 13 34  1  0  0  0  0
 13 35  1  0  0  0  0
 14 36  1  0  0  0  0
 14 37  1  0  0  0  0
 14 38  1  0  0  0  0
 15 16  1  0  0  0  0
 15 39  1  0  0  0  0
 15 40  1  0  0  0  0
 16 41  1  0  0  0  0
 16 42  1  0  0  0  0
 16 43  1  0  0  0  0
 17 18  1  0  0  0  0
 17 44  1  0  0  0  0
 17 45  1  0  0  0  0
 18 46  1  0  0  0  0
 18 47  1  0  0  0  0
 19 23  1  0  0  0  0
M  END
> <ConfScore>
-0.691425 

$$$$
4agm


 47 48  0  0  0  0  0  0  0  0999 V2000
   90.4980   98.3810  -44.6910 N   0  3  0  1  0  4  0  0  0  0  0  0
   92.0405  102.3576  -44.2461 N   0  3  0  1  0  4  0  0  0  0  0  0
   92.8894   94.8417  -45.7081 C   0  0  0  1  0  3  0  0  0  0  0  0
   90.7965   95.9656  -45.1877 C   0  0  0  1  0  3  0  0  0  0  0  0
   92.4534   93.6819  -45.0545 C   0  0  0  1  0  3  0  0  0  0  0  0
   89.9050   97.1660  -45.3350 C   0  0  0  1  0  4  0  0  0  0  0  0
   89.5430   99.5450  -44.7170 C   0  0  0  1  0  4  0  0  0  0  0  0
   92.0675   95.9771  -45.7762 C   0  0  0  1  0  3  0  0  0  0  0  0
   91.1773   93.6916  -44.4680 C   0  0  0  1  0  3  0  0  0  0  0  0
   90.3215   94.8081  -44.5165 C   0  0  0  1  0  3  0  0  0  0  0  0
   90.1750  100.7310  -44.0050 C   0  0  0  1  0  4  0  0  0  0  0  0
   91.4300  101.0810  -44.8020 C   0  0  0  1  0  4  0  0  0  0  0  0
   91.0627  103.5137  -44.3648 C   0  0  0  1  0  4  0  0  0  0  0  0
   89.7043  103.2138  -43.7547 C   0  0  0  1  0  4  0  0  0  0  0  0
   93.3664  102.6994  -44.8897 C   0  0  0  1  0  4  0  0  0  0  0  0
   94.4437  101.6528  -44.6381 C   0  0  0  1  0  4  0  0  0  0  0  0
   92.4510   99.9400  -44.6950 C   0  0  0  1  0  4  0  0  0  0  0  0
   91.8210   98.7070  -45.3220 C   0  0  0  1  0  4  0  0  0  0  0  0
   89.0815   94.7790  -43.9399 O   0  0  0  1  0  2  0  0  0  0  0  0
   94.8077   94.8820  -46.6023 I   0  0  0  1  0  1  0  0  0  0  0  0
   90.5105   91.9476  -43.4654 I   0  0  0  1  0  1  0  0  0  0  0  0
   90.6654   98.1803  -43.7171 H   0  0  0  1  0  1  0  0  0  0  0  0
   89.1327   95.1437  -43.0642 H   0  0  0  1  0  1  0  0  0  0  0  0
   93.0834   92.8015  -45.0028 H   0  0  0  1  0  1  0  0  0  0  0  0
   89.7541   97.3685  -46.4068 H   0  0  0  1  0  1  0  0  0  0  0  0
   88.9354   96.9496  -44.8621 H   0  0  0  1  0  1  0  0  0  0  0  0
   92.2147  102.2040  -43.2644 H   0  0  0  1  0  1  0  0  0  0  0  0
   88.6095   99.2654  -44.2068 H   0  0  0  1  0  1  0  0  0  0  0  0
   89.3242   99.8170  -45.7598 H   0  0  0  1  0  1  0  0  0  0  0  0
   92.4179   96.8672  -46.2867 H   0  0  0  1  0  1  0  0  0  0  0  0
   90.4413  100.4594  -42.9731 H   0  0  0  1  0  1  0  0  0  0  0  0
   89.4801  101.5838  -43.9926 H   0  0  0  1  0  1  0  0  0  0  0  0
   91.1614  101.2320  -45.8572 H   0  0  0  1  0  1  0  0  0  0  0  0
   90.9228  103.7470  -45.4314 H   0  0  0  1  0  1  0  0  0  0  0  0
   91.4904  104.3878  -43.8527 H   0  0  0  1  0  1  0  0  0  0  0  0
   89.0475  104.0883  -43.8755 H   0  0  0  1  0  1  0  0  0  0  0  0
   89.8233  102.9890  -42.6843 H   0  0  0  1  0  1  0  0  0  0  0  0
   89.2569  102.3466  -44.2636 H   0  0  0  1  0  1  0  0  0  0  0  0
   93.7131  103.6615  -44.4853 H   0  0  0  1  0  1  0  0  0  0  0  0
   93.2143  102.7908  -45.9754 H   0  0  0  1  0  1  0  0  0  0  0  0
   95.3719  101.9514  -45.1465 H   0  0  0  1  0  1  0  0  0  0  0  0
   94.1089  100.6807  -45.0298 H   0  0  0  1  0  1  0  0  0  0  0  0
   94.6292  101.5679  -43.5575 H   0  0  0  1  0  1  0  0  0  0  0  0
   92.6876   99.7454  -43.6396 H   0  0  0  1  0  1  0  0  0  0  0  0
   93.3718  100.2075  -45.2346 H   0  0  0  1  0  1  0  0  0  0  0  0
   91.6686   98.8910  -46.3961 H   0  0  0  1  0  1  0  0  0  0  0  0
   92.4999   97.8526  -45.1887 H   0  0  0  1  0  1  0  0  0  0  0  0
  1  6  1  0  0  0  0
  1  7  1  0  0  0  0
  1 18  1  0  0  0  0
  1 22  1  0  0  0  0
  2 12  1  0  0  0  0
  2 13  1  0  0  0  0
  2 15  1  0  0  0  0
  2 27  1  0  0  0  0
  3  5  2  0  0  0  0
  3  8  1  0  0  0  0
  3 20  1  0  0  0  0
  4  6  1  0  0  0  0
  4  8  2  0  0  0  0
  4 10  1  0  0  0  0
  5  9  1  0  0  0  0
  5 24  1  0  0  0  0
  6 25  1  0  0  0  0
  6 26  1  0  0  0  0
  7 11  1  0  0  0  0
  7 28  1  0  0  0  0
  7 29  1  0  0  0  0
  8 30  1  0  0  0  0
  9 10  2  0  0  0  0
  9 21  1  0  0  0  0
 10 19  1  0  0  0  0
 11 12  1  0  0  0  0
 11 31  1  0  0  0  0
 11 32  1  0  0  0  0
 12 17  1  0  0  0  0
 12 33  1  0  0  0  0
 13 14  1  0  0  0  0
 13 34  1  0  0  0  0
 13 35  1  0  0  0  0
 14 36  1  0  0  0  0
 14 37  1  0  0  0  0
 14 38  1  0  0  0  0
 15 16  1  0  0  0  0
 15 39  1  0  0  0  0
 15 40  1  0  0  0  0
 16 41  1  0  0  0  0
 16 42  1  0  0  0  0
 16 43  1  0  0  0  0
 17 18  1  0  0  0  0
 17 44  1  0  0  0  0
 17 45  1  0  0  0  0
 18 46  1  0  0  0  0
 18 47  1  0  0  0  0
 19 23  1  0  0  0  0
M  END
> <ConfScore>
-0.686085 

$$$$
4agm


 47 48  0  0  0  0  0  0  0  0999 V2000
   90.4980   98.3810  -44.6910 N   0  3  0  1  0  4  0  0  0  0  0  0
   92.0405  102.3576  -44.2461 N   0  3  0  1  0  4  0  0  0  0  0  0
   92.8928   94.8645  -45.8085 C   0  0  0  1  0  3  0  0  0  0  0  0
   90.8112   95.9735  -45.2160 C   0  0  0  1  0  3  0  0  0  0  0  0
   92.4906   93.7038  -45.1351 C   0  0  0  1  0  3  0  0  0  0  0  0
   89.9050   97.1660  -45.3350 C   0  0  0  1  0  4  0  0  0  0  0  0
   89.5430   99.5450  -44.7170 C   0  0  0  1  0  4  0  0  0  0  0  0
   92.0597   95.9929  -45.8506 C   0  0  0  1  0  3  0  0  0  0  0  0
   91.2367   93.7055  -44.5025 C   0  0  0  1  0  3  0  0  0  0  0  0
   90.3705   94.8148  -44.5237 C   0  0  0  1  0  3  0  0  0  0  0  0
   90.1750  100.7310  -44.0050 C   0  0  0  1  0  4  0  0  0  0  0  0
   91.4300  101.0810  -44.8020 C   0  0  0  1  0  4  0  0  0  0  0  0
   91.0627  103.5137  -44.3648 C   0  0  0  1  0  4  0  0  0  0  0  0
   89.7043  103.2138  -43.7547 C   0  0  0  1  0  4  0  0  0  0  0  0
   93.3664  102.6994  -44.8897 C   0  0  0  1  0  4  0  0  0  0  0  0
   94.3909  101.5773  -44.7870 C   0  0  0  1  0  4  0  0  0  0  0  0
   92.4510   99.9400  -44.6950 C   0  0  0  1  0  4  0  0  0  0  0  0
   91.8210   98.7070  -45.3220 C   0  0  0  1  0  4  0  0  0  0  0  0
   89.1527   94.7779  -43.9021 O   0  0  0  1  0  2  0  0  0  0  0  0
   94.7768   94.9168  -46.7722 I   0  0  0  1  0  1  0  0  0  0  0  0
   90.6214   91.9601  -43.4699 I   0  0  0  1  0  1  0  0  0  0  0  0
   90.6654   98.1803  -43.7171 H   0  0  0  1  0  1  0  0  0  0  0  0
   89.2328   95.1464  -43.0301 H   0  0  0  1  0  1  0  0  0  0  0  0
   93.1293   92.8287  -45.1033 H   0  0  0  1  0  1  0  0  0  0  0  0
   89.7316   97.3768  -46.4017 H   0  0  0  1  0  1  0  0  0  0  0  0
   88.9469   96.9354  -44.8458 H   0  0  0  1  0  1  0  0  0  0  0  0
   92.2147  102.2040  -43.2644 H   0  0  0  1  0  1  0  0  0  0  0  0
   88.6095   99.2654  -44.2068 H   0  0  0  1  0  1  0  0  0  0  0  0
   89.3242   99.8170  -45.7598 H   0  0  0  1  0  1  0  0  0  0  0  0
   92.3838   96.8838  -46.3768 H   0  0  0  1  0  1  0  0  0  0  0  0
   90.4413  100.4594  -42.9731 H   0  0  0  1  0  1  0  0  0  0  0  0
   89.4801  101.5838  -43.9926 H   0  0  0  1  0  1  0  0  0  0  0  0
   91.1614  101.2320  -45.8572 H   0  0  0  1  0  1  0  0  0  0  0  0
   90.9228  103.7470  -45.4314 H   0  0  0  1  0  1  0  0  0  0  0  0
   91.4904  104.3878  -43.8527 H   0  0  0  1  0  1  0  0  0  0  0  0
   89.2501  102.3573  -44.2750 H   0  0  0  1  0  1  0  0  0  0  0  0
   89.0523  104.0940  -43.8577 H   0  0  0  1  0  1  0  0  0  0  0  0
   89.8267  102.9714  -42.6881 H   0  0  0  1  0  1  0  0  0  0  0  0
   93.7753  103.5919  -44.3941 H   0  0  0  1  0  1  0  0  0  0  0  0
   93.1921  102.9176  -45.9538 H   0  0  0  1  0  1  0  0  0  0  0  0
   95.3209  101.8818  -45.2886 H   0  0  0  1  0  1  0  0  0  0  0  0
   93.9936  100.6728  -45.2714 H   0  0  0  1  0  1  0  0  0  0  0  0
   94.5987  101.3644  -43.7283 H   0  0  0  1  0  1  0  0  0  0  0  0
   92.6876   99.7454  -43.6396 H   0  0  0  1  0  1  0  0  0  0  0  0
   93.3718  100.2075  -45.2346 H   0  0  0  1  0  1  0  0  0  0  0  0
   91.6686   98.8910  -46.3961 H   0  0  0  1  0  1  0  0  0  0  0  0
   92.4999   97.8526  -45.1887 H   0  0  0  1  0  1  0  0  0  0  0  0
  1  6  1  0  0  0  0
  1  7  1  0  0  0  0
  1 18  1  0  0  0  0
  1 22  1  0  0  0  0
  2 12  1  0  0  0  0
  2 13  1  0  0  0  0
  2 15  1  0  0  0  0
  2 27  1  0  0  0  0
  3  5  2  0  0  0  0
  3  8  1  0  0  0  0
  3 20  1  0  0  0  0
  4  6  1  0  0  0  0
  4  8  2  0  0  0  0
  4 10  1  0  0  0  0
  5  9  1  0  0  0  0
  5 24  1  0  0  0  0
  6 25  1  0  0  0  0
  6 26  1  0  0  0  0
  7 11  1  0  0  0  0
  7 28  1  0  0  0  0
  7 29  1  0  0  0  0
  8 30  1  0  0  0  0
  9 10  2  0  0  0  0
  9 21  1  0  0  0  0
 10 19  1  0  0  0  0
 11 12  1  0  0  0  0
 11 31  1  0  0  0  0
 11 32  1  0  0  0  0
 12 17  1  0  0  0  0
 12 33  1  0  0  0  0
 13 14  1  0  0  0  0
 13 34  1  0  0  0  0
 13 35  1  0  0  0  0
 14 36  1  0  0  0  0
 14 37  1  0  0  0  0
 14 38  1  0  0  0  0
 15 16  1  0  0  0  0
 15 39  1  0  0  0  0
 15 40  1  0  0  0  0
 16 41  1  0  0  0  0
 16 42  1  0  0  0  0
 16 43  1  0  0  0  0
 17 18  1  0  0  0  0
 17 44  1  0  0  0  0
 17 45  1  0  0  0  0
 18 46  1  0  0  0  0
 18 47  1  0  0  0  0
 19 23  1  0  0  0  0
M  END
> <ConfScore>
-0.686085 

$$$$
4agm


 47 48  0  0  0  0  0  0  0  0999 V2000
  123.9590  107.7800  -44.6740 N   0  3  0  1  0  4  0  0  0  0  0  0
  125.6880  111.7520  -44.3740 N   0  3  0  1  0  4  0  0  0  0  0  0
  124.2732  102.9329  -45.1298 C   0  0  0  1  0  3  0  0  0  0  0  0
  123.8338  105.3020  -44.8040 C   0  0  0  1  0  3  0  0  0  0  0  0
  124.6708  102.8008  -43.7934 C   0  0  0  1  0  3  0  0  0  0  0  0
  123.3160  106.6050  -45.3430 C   0  0  0  1  0  4  0  0  0  0  0  0
  123.0630  108.9900  -44.6940 C   0  0  0  1  0  4  0  0  0  0  0  0
  123.8561  104.1745  -45.6340 C   0  0  0  1  0  3  0  0  0  0  0  0
  124.6444  103.9443  -42.9785 C   0  0  0  1  0  3  0  0  0  0  0  0
  124.2308  105.2061  -43.4439 C   0  0  0  1  0  3  0  0  0  0  0  0
  123.7430  110.1330  -43.9560 C   0  0  0  1  0  4  0  0  0  0  0  0
  125.0240  110.4320  -44.7320 C   0  0  0  1  0  4  0  0  0  0  0  0
  126.1114  111.7592  -42.9155 C   0  0  0  1  0  4  0  0  0  0  0  0
  124.9423  111.6470  -41.9522 C   0  0  0  1  0  4  0  0  0  0  0  0
  124.8188  112.9486  -44.6931 C   0  0  0  1  0  4  0  0  0  0  0  0
  125.4928  114.2793  -44.3866 C   0  0  0  1  0  4  0  0  0  0  0  0
  125.9860  109.2400  -44.6290 C   0  0  0  1  0  4  0  0  0  0  0  0
  125.3050  108.0490  -45.2830 C   0  0  0  1  0  4  0  0  0  0  0  0
  124.2362  106.3291  -42.6630 O   0  0  0  1  0  2  0  0  0  0  0  0
  124.3019  101.2733  -46.4435 I   0  0  0  1  0  1  0  0  0  0  0  0
  125.2110  103.7485  -40.9458 I   0  0  0  1  0  1  0  0  0  0  0  0
  124.1080  107.5360  -43.7070 H   0  0  0  1  0  1  0  0  0  0  0  0
  124.5232  106.1018  -41.7863 H   0  0  0  1  0  1  0  0  0  0  0  0
  124.9909  101.8432  -43.3994 H   0  0  0  1  0  1  0  0  0  0  0  0
  122.2284  106.6519  -45.1775 H   0  0  0  1  0  1  0  0  0  0  0  0
  123.5245  106.6521  -46.4223 H   0  0  0  1  0  1  0  0  0  0  0  0
  126.5227  111.8298  -44.9351 H   0  0  0  1  0  1  0  0  0  0  0  0
  122.1100  108.7500  -44.2000 H   0  0  0  1  0  1  0  0  0  0  0  0
  122.8710  109.2880  -45.7350 H   0  0  0  1  0  1  0  0  0  0  0  0
  123.5501  104.2609  -46.6707 H   0  0  0  1  0  1  0  0  0  0  0  0
  123.9820  109.8340  -42.9250 H   0  0  0  1  0  1  0  0  0  0  0  0
  123.0910  111.0190  -43.9380 H   0  0  0  1  0  1  0  0  0  0  0  0
  124.7340  110.5160  -45.7890 H   0  0  0  1  0  1  0  0  0  0  0  0
  126.6449  112.6997  -42.7093 H   0  0  0  1  0  1  0  0  0  0  0  0
  126.7886  110.9100  -42.7433 H   0  0  0  1  0  1  0  0  0  0  0  0
  125.3189  111.6411  -40.9182 H   0  0  0  1  0  1  0  0  0  0  0  0
  124.3924  110.7144  -42.1480 H   0  0  0  1  0  1  0  0  0  0  0  0
  124.2683  112.5058  -42.0916 H   0  0  0  1  0  1  0  0  0  0  0  0
  123.8967  112.8789  -44.0980 H   0  0  0  1  0  1  0  0  0  0  0  0
  124.5677  112.9221  -45.7639 H   0  0  0  1  0  1  0  0  0  0  0  0
  126.4231  114.3623  -44.9670 H   0  0  0  1  0  1  0  0  0  0  0  0
  125.7260  114.3333  -43.3127 H   0  0  0  1  0  1  0  0  0  0  0  0
  124.8179  115.1045  -44.6566 H   0  0  0  1  0  1  0  0  0  0  0  0
  126.1990  109.0180  -43.5740 H   0  0  0  1  0  1  0  0  0  0  0  0
  126.9260  109.4690  -45.1530 H   0  0  0  1  0  1  0  0  0  0  0  0
  125.1760  108.2560  -46.3560 H   0  0  0  1  0  1  0  0  0  0  0  0
  125.9390  107.1600  -45.1550 H   0  0  0  1  0  1  0  0  0  0  0  0
  1  6  1  0  0  0  0
  1  7  1  0  0  0  0
  1 18  1  0  0  0  0
  1 22  1  0  0  0  0
  2 12  1  0  0  0  0
  2 13  1  0  0  0  0
  2 15  1  0  0  0  0
  2 27  1  0  0  0  0
  3  5  2  0  0  0  0
  3  8  1  0  0  0  0
  3 20  1  0  0  0  0
  4  6  1  0  0  0  0
  4  8  2  0  0  0  0
  4 10  1  0  0  0  0
  5  9  1  0  0  0  0
  5 24  1  0  0  0  0
  6 25  1  0  0  0  0
  6 26  1  0  0  0  0
  7 11  1  0  0  0  0
  7 28  1  0  0  0  0
  7 29  1  0  0  0  0
  8 30  1  0  0  0  0
  9 10  2  0  0  0  0
  9 21  1  0  0  0  0
 10 19  1  0  0  0  0
 11 12  1  0  0  0  0
 11 31  1  0  0  0  0
 11 32  1  0  0  0  0
 12 17  1  0  0  0  0
 12 33  1  0  0  0  0
 13 14  1  0  0  0  0
 13 34  1  0  0  0  0
 13 35  1  0  0  0  0
 14 36  1  0  0  0  0
 14 37  1  0  0  0  0
 14 38  1  0  0  0  0
 15 16  1  0  0  0  0
 15 39  1  0  0  0  0
 15 40  1  0  0  0  0
 16 41  1  0  0  0  0
 16 42  1  0  0  0  0
 16 43  1  0  0  0  0
 17 18  1  0  0  0  0
 17 44  1  0  0  0  0
 17 45  1  0  0  0  0
 18 46  1  0  0  0  0
 18 47  1  0  0  0  0
 19 23  1  0  0  0  0
M  END
> <ConfScore>
-0.68388 

$$$$
4agm


 47 48  0  0  0  0  0  0  0  0999 V2000
   90.4980   98.3810  -44.6910 N   0  3  0  1  0  4  0  0  0  0  0  0
   92.0405  102.3576  -44.2461 N   0  3  0  1  0  4  0  0  0  0  0  0
   88.1620   98.0277  -48.6011 C   0  0  0  1  0  3  0  0  0  0  0  0
   89.6638   97.3748  -46.8032 C   0  0  0  1  0  3  0  0  0  0  0  0
   89.1137   97.6558  -49.5594 C   0  0  0  1  0  3  0  0  0  0  0  0
   89.9050   97.1660  -45.3350 C   0  0  0  1  0  4  0  0  0  0  0  0
   89.5430   99.5450  -44.7170 C   0  0  0  1  0  4  0  0  0  0  0  0
   88.4329   97.8881  -47.2313 C   0  0  0  1  0  3  0  0  0  0  0  0
   90.3428   97.1463  -49.1099 C   0  0  0  1  0  3  0  0  0  0  0  0
   90.6525   96.9878  -47.7460 C   0  0  0  1  0  3  0  0  0  0  0  0
   90.1750  100.7310  -44.0050 C   0  0  0  1  0  4  0  0  0  0  0  0
   91.4300  101.0810  -44.8020 C   0  0  0  1  0  4  0  0  0  0  0  0
   91.0627  103.5137  -44.3648 C   0  0  0  1  0  4  0  0  0  0  0  0
   89.7362  103.2491  -43.6737 C   0  0  0  1  0  4  0  0  0  0  0  0
   93.3664  102.6994  -44.8897 C   0  0  0  1  0  4  0  0  0  0  0  0
   93.2582  102.9599  -46.3862 C   0  0  0  1  0  4  0  0  0  0  0  0
   92.4510   99.9400  -44.6950 C   0  0  0  1  0  4  0  0  0  0  0  0
   91.8210   98.7070  -45.3220 C   0  0  0  1  0  4  0  0  0  0  0  0
   91.8579   96.4812  -47.3447 O   0  0  0  1  0  2  0  0  0  0  0  0
   86.2961   98.8083  -49.2257 I   0  0  0  1  0  1  0  0  0  0  0  0
   91.7961   96.5915  -50.5492 I   0  0  0  1  0  1  0  0  0  0  0  0
   90.6654   98.1803  -43.7171 H   0  0  0  1  0  1  0  0  0  0  0  0
   92.4553   97.1969  -47.1619 H   0  0  0  1  0  1  0  0  0  0  0  0
   88.9071   97.7584  -50.6185 H   0  0  0  1  0  1  0  0  0  0  0  0
   88.9460   96.9354  -44.8455 H   0  0  0  1  0  1  0  0  0  0  0  0
   90.5967   96.3204  -45.2045 H   0  0  0  1  0  1  0  0  0  0  0  0
   92.2147  102.2040  -43.2644 H   0  0  0  1  0  1  0  0  0  0  0  0
   88.6095   99.2654  -44.2068 H   0  0  0  1  0  1  0  0  0  0  0  0
   89.3242   99.8170  -45.7598 H   0  0  0  1  0  1  0  0  0  0  0  0
   87.6860   98.1789  -46.5010 H   0  0  0  1  0  1  0  0  0  0  0  0
   90.4413  100.4594  -42.9731 H   0  0  0  1  0  1  0  0  0  0  0  0
   89.4801  101.5838  -43.9926 H   0  0  0  1  0  1  0  0  0  0  0  0
   91.1614  101.2320  -45.8572 H   0  0  0  1  0  1  0  0  0  0  0  0
   90.8693  103.7017  -45.4320 H   0  0  0  1  0  1  0  0  0  0  0  0
   91.5197  104.4064  -43.9136 H   0  0  0  1  0  1  0  0  0  0  0  0
   89.0776  104.1217  -43.7987 H   0  0  0  1  0  1  0  0  0  0  0  0
   89.9089  103.0698  -42.6020 H   0  0  0  1  0  1  0  0  0  0  0  0
   89.2597  102.3636  -44.1211 H   0  0  0  1  0  1  0  0  0  0  0  0
   94.0585  101.8597  -44.7306 H   0  0  0  1  0  1  0  0  0  0  0  0
   93.7671  103.6024  -44.4055 H   0  0  0  1  0  1  0  0  0  0  0  0
   94.2488  103.2201  -46.7865 H   0  0  0  1  0  1  0  0  0  0  0  0
   92.5619  103.7930  -46.5638 H   0  0  0  1  0  1  0  0  0  0  0  0
   92.8850  102.0569  -46.8909 H   0  0  0  1  0  1  0  0  0  0  0  0
   92.6876   99.7454  -43.6396 H   0  0  0  1  0  1  0  0  0  0  0  0
   93.3718  100.2075  -45.2346 H   0  0  0  1  0  1  0  0  0  0  0  0
   91.6686   98.8910  -46.3961 H   0  0  0  1  0  1  0  0  0  0  0  0
   92.4999   97.8526  -45.1887 H   0  0  0  1  0  1  0  0  0  0  0  0
  1  6  1  0  0  0  0
  1  7  1  0  0  0  0
  1 18  1  0  0  0  0
  1 22  1  0  0  0  0
  2 12  1  0  0  0  0
  2 13  1  0  0  0  0
  2 15  1  0  0  0  0
  2 27  1  0  0  0  0
  3  5  2  0  0  0  0
  3  8  1  0  0  0  0
  3 20  1  0  0  0  0
  4  6  1  0  0  0  0
  4  8  2  0  0  0  0
  4 10  1  0  0  0  0
  5  9  1  0  0  0  0
  5 24  1  0  0  0  0
  6 25  1  0  0  0  0
  6 26  1  0  0  0  0
  7 11  1  0  0  0  0
  7 28  1  0  0  0  0
  7 29  1  0  0  0  0
  8 30  1  0  0  0  0
  9 10  2  0  0  0  0
  9 21  1  0  0  0  0
 10 19  1  0  0  0  0
 11 12  1  0  0  0  0
 11 31  1  0  0  0  0
 11 32  1  0  0  0  0
 12 17  1  0  0  0  0
 12 33  1  0  0  0  0
 13 14  1  0  0  0  0
 13 34  1  0  0  0  0
 13 35  1  0  0  0  0
 14 36  1  0  0  0  0
 14 37  1  0  0  0  0
 14 38  1  0  0  0  0
 15 16  1  0  0  0  0
 15 39  1  0  0  0  0
 15 40  1  0  0  0  0
 16 41  1  0  0  0  0
 16 42  1  0  0  0  0
 16 43  1  0  0  0  0
 17 18  1  0  0  0  0
 17 44  1  0  0  0  0
 17 45  1  0  0  0  0
 18 46  1  0  0  0  0
 18 47  1  0  0  0  0
 19 23  1  0  0  0  0
M  END
> <ConfScore>
-0.681309 

$$$$
4agm


 47 48  0  0  0  0  0  0  0  0999 V2000
   90.4980   98.3810  -44.6910 N   0  3  0  1  0  4  0  0  0  0  0  0
   92.0405  102.3576  -44.2461 N   0  3  0  1  0  4  0  0  0  0  0  0
   86.2563   96.9140  -44.2999 C   0  0  0  1  0  3  0  0  0  0  0  0
   88.6574   96.7142  -44.6303 C   0  0  0  1  0  3  0  0  0  0  0  0
   86.3045   95.9977  -43.2414 C   0  0  0  1  0  3  0  0  0  0  0  0
   89.9050   97.1660  -45.3350 C   0  0  0  1  0  4  0  0  0  0  0  0
   89.5430   99.5450  -44.7170 C   0  0  0  1  0  4  0  0  0  0  0  0
   87.4241   97.2721  -44.9906 C   0  0  0  1  0  3  0  0  0  0  0  0
   87.5500   95.4471  -42.8976 C   0  0  0  1  0  3  0  0  0  0  0  0
   88.7443   95.7819  -43.5629 C   0  0  0  1  0  3  0  0  0  0  0  0
   90.1750  100.7310  -44.0050 C   0  0  0  1  0  4  0  0  0  0  0  0
   91.4300  101.0810  -44.8020 C   0  0  0  1  0  4  0  0  0  0  0  0
   91.0627  103.5137  -44.3648 C   0  0  0  1  0  4  0  0  0  0  0  0
   89.7743  103.2897  -43.5920 C   0  0  0  1  0  4  0  0  0  0  0  0
   93.3664  102.6994  -44.8897 C   0  0  0  1  0  4  0  0  0  0  0  0
   93.2814  102.8364  -46.4040 C   0  0  0  1  0  4  0  0  0  0  0  0
   92.4510   99.9400  -44.6950 C   0  0  0  1  0  4  0  0  0  0  0  0
   91.8210   98.7070  -45.3220 C   0  0  0  1  0  4  0  0  0  0  0  0
   89.9412   95.2309  -43.1958 O   0  0  0  1  0  2  0  0  0  0  0  0
   84.4027   97.7674  -44.8631 I   0  0  0  1  0  1  0  0  0  0  0  0
   87.6348   94.0502  -41.3061 I   0  0  0  1  0  1  0  0  0  0  0  0
   90.6654   98.1803  -43.7171 H   0  0  0  1  0  1  0  0  0  0  0  0
   90.6506   95.7617  -43.5386 H   0  0  0  1  0  1  0  0  0  0  0  0
   85.4055   95.7212  -42.7027 H   0  0  0  1  0  1  0  0  0  0  0  0
   90.6449   96.3510  -45.3073 H   0  0  0  1  0  1  0  0  0  0  0  0
   89.6576   97.4021  -46.3807 H   0  0  0  1  0  1  0  0  0  0  0  0
   92.2147  102.2040  -43.2644 H   0  0  0  1  0  1  0  0  0  0  0  0
   88.6095   99.2654  -44.2068 H   0  0  0  1  0  1  0  0  0  0  0  0
   89.3242   99.8170  -45.7598 H   0  0  0  1  0  1  0  0  0  0  0  0
   87.3716   97.9838  -45.8070 H   0  0  0  1  0  1  0  0  0  0  0  0
   90.4413  100.4594  -42.9731 H   0  0  0  1  0  1  0  0  0  0  0  0
   89.4801  101.5838  -43.9926 H   0  0  0  1  0  1  0  0  0  0  0  0
   91.1614  101.2320  -45.8572 H   0  0  0  1  0  1  0  0  0  0  0  0
   90.8127  103.6543  -45.4275 H   0  0  0  1  0  1  0  0  0  0  0  0
   91.5472  104.4228  -43.9802 H   0  0  0  1  0  1  0  0  0  0  0  0
   90.0073  103.1405  -42.5269 H   0  0  0  1  0  1  0  0  0  0  0  0
   89.2603  102.3994  -43.9837 H   0  0  0  1  0  1  0  0  0  0  0  0
   89.1216  104.1687  -43.7044 H   0  0  0  1  0  1  0  0  0  0  0  0
   94.0860  101.9028  -44.6510 H   0  0  0  1  0  1  0  0  0  0  0  0
   93.7220  103.6529  -44.4716 H   0  0  0  1  0  1  0  0  0  0  0  0
   94.2700  103.1030  -46.8049 H   0  0  0  1  0  1  0  0  0  0  0  0
   92.5582  103.6249  -46.6607 H   0  0  0  1  0  1  0  0  0  0  0  0
   92.9537  101.8824  -46.8421 H   0  0  0  1  0  1  0  0  0  0  0  0
   92.6876   99.7454  -43.6396 H   0  0  0  1  0  1  0  0  0  0  0  0
   93.3718  100.2075  -45.2346 H   0  0  0  1  0  1  0  0  0  0  0  0
   91.6686   98.8910  -46.3961 H   0  0  0  1  0  1  0  0  0  0  0  0
   92.4999   97.8526  -45.1887 H   0  0  0  1  0  1  0  0  0  0  0  0
  1  6  1  0  0  0  0
  1  7  1  0  0  0  0
  1 18  1  0  0  0  0
  1 22  1  0  0  0  0
  2 12  1  0  0  0  0
  2 13  1  0  0  0  0
  2 15  1  0  0  0  0
  2 27  1  0  0  0  0
  3  5  2  0  0  0  0
  3  8  1  0  0  0  0
  3 20  1  0  0  0  0
  4  6  1  0  0  0  0
  4  8  2  0  0  0  0
  4 10  1  0  0  0  0
  5  9  1  0  0  0  0
  5 24  1  0  0  0  0
  6 25  1  0  0  0  0
  6 26  1  0  0  0  0
  7 11  1  0  0  0  0
  7 28  1  0  0  0  0
  7 29  1  0  0  0  0
  8 30  1  0  0  0  0
  9 10  2  0  0  0  0
  9 21  1  0  0  0  0
 10 19  1  0  0  0  0
 11 12  1  0  0  0  0
 11 31  1  0  0  0  0
 11 32  1  0  0  0  0
 12 17  1  0  0  0  0
 12 33  1  0  0  0  0
 13 14  1  0  0  0  0
 13 34  1  0  0  0  0
 13 35  1  0  0  0  0
 14 36  1  0  0  0  0
 14 37  1  0  0  0  0
 14 38  1  0  0  0  0
 15 16  1  0  0  0  0
 15 39  1  0  0  0  0
 15 40  1  0  0  0  0
 16 41  1  0  0  0  0
 16 42  1  0  0  0  0
 16 43  1  0  0  0  0
 17 18  1  0  0  0  0
 17 44  1  0  0  0  0
 17 45  1  0  0  0  0
 18 46  1  0  0  0  0
 18 47  1  0  0  0  0
 19 23  1  0  0  0  0
M  END
> <ConfScore>
-0.680153 

$$$$
4agm


 47 48  0  0  0  0  0  0  0  0999 V2000
   90.4980   98.3810  -44.6910 N   0  3  0  1  0  4  0  0  0  0  0  0
   92.0405  102.3576  -44.2461 N   0  3  0  1  0  4  0  0  0  0  0  0
   86.2438   96.8486  -44.3640 C   0  0  0  1  0  3  0  0  0  0  0  0
   88.6574   96.7142  -44.6303 C   0  0  0  1  0  3  0  0  0  0  0  0
   86.2985   96.0010  -43.2499 C   0  0  0  1  0  3  0  0  0  0  0  0
   89.9050   97.1660  -45.3350 C   0  0  0  1  0  4  0  0  0  0  0  0
   89.5430   99.5450  -44.7170 C   0  0  0  1  0  4  0  0  0  0  0  0
   87.4146   97.2049  -45.0506 C   0  0  0  1  0  3  0  0  0  0  0  0
   87.5536   95.5171  -42.8462 C   0  0  0  1  0  3  0  0  0  0  0  0
   88.7511   95.8527  -43.5056 C   0  0  0  1  0  3  0  0  0  0  0  0
   90.1750  100.7310  -44.0050 C   0  0  0  1  0  4  0  0  0  0  0  0
   91.4300  101.0810  -44.8020 C   0  0  0  1  0  4  0  0  0  0  0  0
   91.0627  103.5137  -44.3648 C   0  0  0  1  0  4  0  0  0  0  0  0
   89.7645  103.2794  -43.6117 C   0  0  0  1  0  4  0  0  0  0  0  0
   93.3664  102.6994  -44.8897 C   0  0  0  1  0  4  0  0  0  0  0  0
   93.2670  102.9098  -46.3946 C   0  0  0  1  0  4  0  0  0  0  0  0
   92.4510   99.9400  -44.6950 C   0  0  0  1  0  4  0  0  0  0  0  0
   91.8210   98.7070  -45.3220 C   0  0  0  1  0  4  0  0  0  0  0  0
   89.9572   95.3680  -43.0797 O   0  0  0  1  0  2  0  0  0  0  0  0
   84.3759   97.5995  -45.0182 I   0  0  0  1  0  1  0  0  0  0  0  0
   87.6489   94.2241  -41.1698 I   0  0  0  1  0  1  0  0  0  0  0  0
   90.6654   98.1803  -43.7171 H   0  0  0  1  0  1  0  0  0  0  0  0
   90.1735   94.5848  -43.5720 H   0  0  0  1  0  1  0  0  0  0  0  0
   85.3971   95.7263  -42.7143 H   0  0  0  1  0  1  0  0  0  0  0  0
   90.6449   96.3510  -45.3073 H   0  0  0  1  0  1  0  0  0  0  0  0
   89.6576   97.4021  -46.3807 H   0  0  0  1  0  1  0  0  0  0  0  0
   92.2147  102.2040  -43.2644 H   0  0  0  1  0  1  0  0  0  0  0  0
   88.6095   99.2654  -44.2068 H   0  0  0  1  0  1  0  0  0  0  0  0
   89.3242   99.8170  -45.7598 H   0  0  0  1  0  1  0  0  0  0  0  0
   87.3569   97.8629  -45.9105 H   0  0  0  1  0  1  0  0  0  0  0  0
   90.4413  100.4594  -42.9731 H   0  0  0  1  0  1  0  0  0  0  0  0
   89.4801  101.5838  -43.9926 H   0  0  0  1  0  1  0  0  0  0  0  0
   91.1614  101.2320  -45.8572 H   0  0  0  1  0  1  0  0  0  0  0  0
   90.8266  103.6659  -45.4291 H   0  0  0  1  0  1  0  0  0  0  0  0
   91.5408  104.4191  -43.9636 H   0  0  0  1  0  1  0  0  0  0  0  0
   89.9835  103.1185  -42.5454 H   0  0  0  1  0  1  0  0  0  0  0  0
   89.2570  102.3928  -44.0202 H   0  0  0  1  0  1  0  0  0  0  0  0
   89.1121  104.1587  -43.7230 H   0  0  0  1  0  1  0  0  0  0  0  0
   94.0701  101.8763  -44.6979 H   0  0  0  1  0  1  0  0  0  0  0  0
   93.7489  103.6238  -44.4318 H   0  0  0  1  0  1  0  0  0  0  0  0
   92.8949  101.9908  -46.8704 H   0  0  0  1  0  1  0  0  0  0  0  0
   94.2616  103.1529  -46.7973 H   0  0  0  1  0  1  0  0  0  0  0  0
   92.5743  103.7375  -46.6056 H   0  0  0  1  0  1  0  0  0  0  0  0
   92.6876   99.7454  -43.6396 H   0  0  0  1  0  1  0  0  0  0  0  0
   93.3718  100.2075  -45.2346 H   0  0  0  1  0  1  0  0  0  0  0  0
   91.6686   98.8910  -46.3961 H   0  0  0  1  0  1  0  0  0  0  0  0
   92.4999   97.8526  -45.1887 H   0  0  0  1  0  1  0  0  0  0  0  0
  1  6  1  0  0  0  0
  1  7  1  0  0  0  0
  1 18  1  0  0  0  0
  1 22  1  0  0  0  0
  2 12  1  0  0  0  0
  2 13  1  0  0  0  0
  2 15  1  0  0  0  0
  2 27  1  0  0  0  0
  3  5  2  0  0  0  0
  3  8  1  0  0  0  0
  3 20  1  0  0  0  0
  4  6  1  0  0  0  0
  4  8  2  0  0  0  0
  4 10  1  0  0  0  0
  5  9  1  0  0  0  0
  5 24  1  0  0  0  0
  6 25  1  0  0  0  0
  6 26  1  0  0  0  0
  7 11  1  0  0  0  0
  7 28  1  0  0  0  0
  7 29  1  0  0  0  0
  8 30  1  0  0  0  0
  9 10  2  0  0  0  0
  9 21  1  0  0  0  0
 10 19  1  0  0  0  0
 11 12  1  0  0  0  0
 11 31  1  0  0  0  0
 11 32  1  0  0  0  0
 12 17  1  0  0  0  0
 12 33  1  0  0  0  0
 13 14  1  0  0  0  0
 13 34  1  0  0  0  0
 13 35  1  0  0  0  0
 14 36  1  0  0  0  0
 14 37  1  0  0  0  0
 14 38  1  0  0  0  0
 15 16  1  0  0  0  0
 15 39  1  0  0  0  0
 15 40  1  0  0  0  0
 16 41  1  0  0  0  0
 16 42  1  0  0  0  0
 16 43  1  0  0  0  0
 17 18  1  0  0  0  0
 17 44  1  0  0  0  0
 17 45  1  0  0  0  0
 18 46  1  0  0  0  0
 18 47  1  0  0  0  0
 19 23  1  0  0  0  0
M  END
> <ConfScore>
-0.680153 

$$$$
4agm


 47 48  0  0  0  0  0  0  0  0999 V2000
   90.4980   98.3810  -44.6910 N   0  3  0  1  0  4  0  0  0  0  0  0
   92.0405  102.3576  -44.2461 N   0  3  0  1  0  4  0  0  0  0  0  0
   86.2563   96.9140  -44.2999 C   0  0  0  1  0  3  0  0  0  0  0  0
   88.6574   96.7142  -44.6303 C   0  0  0  1  0  3  0  0  0  0  0  0
   86.3045   95.9977  -43.2414 C   0  0  0  1  0  3  0  0  0  0  0  0
   89.9050   97.1660  -45.3350 C   0  0  0  1  0  4  0  0  0  0  0  0
   89.5430   99.5450  -44.7170 C   0  0  0  1  0  4  0  0  0  0  0  0
   87.4241   97.2721  -44.9906 C   0  0  0  1  0  3  0  0  0  0  0  0
   87.5500   95.4471  -42.8976 C   0  0  0  1  0  3  0  0  0  0  0  0
   88.7443   95.7819  -43.5629 C   0  0  0  1  0  3  0  0  0  0  0  0
   90.1750  100.7310  -44.0050 C   0  0  0  1  0  4  0  0  0  0  0  0
   91.4300  101.0810  -44.8020 C   0  0  0  1  0  4  0  0  0  0  0  0
   92.4367  102.1715  -42.7917 C   0  0  0  1  0  4  0  0  0  0  0  0
   93.4762  101.0826  -42.5891 C   0  0  0  1  0  4  0  0  0  0  0  0
   91.1358  103.5587  -44.4131 C   0  0  0  1  0  4  0  0  0  0  0  0
   89.7661  103.3724  -43.7741 C   0  0  0  1  0  4  0  0  0  0  0  0
   92.4510   99.9400  -44.6950 C   0  0  0  1  0  4  0  0  0  0  0  0
   91.8210   98.7070  -45.3220 C   0  0  0  1  0  4  0  0  0  0  0  0
   89.9412   95.2309  -43.1958 O   0  0  0  1  0  2  0  0  0  0  0  0
   84.4027   97.7674  -44.8631 I   0  0  0  1  0  1  0  0  0  0  0  0
   87.6348   94.0502  -41.3061 I   0  0  0  1  0  1  0  0  0  0  0  0
   90.6654   98.1803  -43.7171 H   0  0  0  1  0  1  0  0  0  0  0  0
   90.6506   95.7617  -43.5386 H   0  0  0  1  0  1  0  0  0  0  0  0
   85.4055   95.7212  -42.7027 H   0  0  0  1  0  1  0  0  0  0  0  0
   90.6449   96.3510  -45.3073 H   0  0  0  1  0  1  0  0  0  0  0  0
   89.6576   97.4021  -46.3807 H   0  0  0  1  0  1  0  0  0  0  0  0
   92.8821  102.5410  -44.7712 H   0  0  0  1  0  1  0  0  0  0  0  0
   88.6095   99.2654  -44.2068 H   0  0  0  1  0  1  0  0  0  0  0  0
   89.3242   99.8170  -45.7598 H   0  0  0  1  0  1  0  0  0  0  0  0
   87.3716   97.9838  -45.8070 H   0  0  0  1  0  1  0  0  0  0  0  0
   90.4413  100.4594  -42.9731 H   0  0  0  1  0  1  0  0  0  0  0  0
   89.4801  101.5838  -43.9926 H   0  0  0  1  0  1  0  0  0  0  0  0
   91.1614  101.2320  -45.8572 H   0  0  0  1  0  1  0  0  0  0  0  0
   91.5376  101.9081  -42.2139 H   0  0  0  1  0  1  0  0  0  0  0  0
   92.8470  103.1203  -42.4165 H   0  0  0  1  0  1  0  0  0  0  0  0
   94.3805  101.3275  -43.1662 H   0  0  0  1  0  1  0  0  0  0  0  0
   93.0713  100.1189  -42.9322 H   0  0  0  1  0  1  0  0  0  0  0  0
   93.7313  101.0132  -41.5207 H   0  0  0  1  0  1  0  0  0  0  0  0
   90.9973  103.7446  -45.4881 H   0  0  0  1  0  1  0  0  0  0  0  0
   91.6225  104.4296  -43.9495 H   0  0  0  1  0  1  0  0  0  0  0  0
   89.1680  104.2844  -43.9146 H   0  0  0  1  0  1  0  0  0  0  0  0
   89.8871  103.1768  -42.6982 H   0  0  0  1  0  1  0  0  0  0  0  0
   89.2527  102.5216  -44.2454 H   0  0  0  1  0  1  0  0  0  0  0  0
   92.6876   99.7454  -43.6396 H   0  0  0  1  0  1  0  0  0  0  0  0
   93.3718  100.2075  -45.2346 H   0  0  0  1  0  1  0  0  0  0  0  0
   91.6686   98.8910  -46.3961 H   0  0  0  1  0  1  0  0  0  0  0  0
   92.4999   97.8526  -45.1887 H   0  0  0  1  0  1  0  0  0  0  0  0
  1  6  1  0  0  0  0
  1  7  1  0  0  0  0
  1 18  1  0  0  0  0
  1 22  1  0  0  0  0
  2 12  1  0  0  0  0
  2 13  1  0  0  0  0
  2 15  1  0  0  0  0
  2 27  1  0  0  0  0
  3  5  2  0  0  0  0
  3  8  1  0  0  0  0
  3 20  1  0  0  0  0
  4  6  1  0  0  0  0
  4  8  2  0  0  0  0
  4 10  1  0  0  0  0
  5  9  1  0  0  0  0
  5 24  1  0  0  0  0
  6 25  1  0  0  0  0
  6 26  1  0  0  0  0
  7 11  1  0  0  0  0
  7 28  1  0  0  0  0
  7 29  1  0  0  0  0
  8 30  1  0  0  0  0
  9 10  2  0  0  0  0
  9 21  1  0  0  0  0
 10 19  1  0  0  0  0
 11 12  1  0  0  0  0
 11 31  1  0  0  0  0
 11 32  1  0  0  0  0
 12 17  1  0  0  0  0
 12 33  1  0  0  0  0
 13 14  1  0  0  0  0
 13 34  1  0  0  0  0
 13 35  1  0  0  0  0
 14 36  1  0  0  0  0
 14 37  1  0  0  0  0
 14 38  1  0  0  0  0
 15 16  1  0  0  0  0
 15 39  1  0  0  0  0
 15 40  1  0  0  0  0
 16 41  1  0  0  0  0
 16 42  1  0  0  0  0
 16 43  1  0  0  0  0
 17 18  1  0  0  0  0
 17 44  1  0  0  0  0
 17 45  1  0  0  0  0
 18 46  1  0  0  0  0
 18 47  1  0  0  0  0
 19 23  1  0  0  0  0
M  END
> <ConfScore>
-0.678725 

$$$$
4agm


 47 48  0  0  0  0  0  0  0  0999 V2000
   90.4980   98.3810  -44.6910 N   0  3  0  1  0  4  0  0  0  0  0  0
   92.0405  102.3576  -44.2461 N   0  3  0  1  0  4  0  0  0  0  0  0
   86.4097   97.2227  -43.8425 C   0  0  0  1  0  3  0  0  0  0  0  0
   88.6529   96.7190  -44.6351 C   0  0  0  1  0  3  0  0  0  0  0  0
   86.3297   95.9745  -43.2116 C   0  0  0  1  0  3  0  0  0  0  0  0
   89.9050   97.1660  -45.3350 C   0  0  0  1  0  4  0  0  0  0  0  0
   89.5430   99.5450  -44.7170 C   0  0  0  1  0  4  0  0  0  0  0  0
   87.5633   97.5949  -44.5495 C   0  0  0  1  0  3  0  0  0  0  0  0
   87.4314   95.1094  -43.3118 C   0  0  0  1  0  3  0  0  0  0  0  0
   88.6073   95.4456  -44.0085 C   0  0  0  1  0  3  0  0  0  0  0  0
   90.1750  100.7310  -44.0050 C   0  0  0  1  0  4  0  0  0  0  0  0
   91.4300  101.0810  -44.8020 C   0  0  0  1  0  4  0  0  0  0  0  0
   91.0627  103.5137  -44.3648 C   0  0  0  1  0  4  0  0  0  0  0  0
   89.7497  103.2636  -43.6431 C   0  0  0  1  0  4  0  0  0  0  0  0
   93.3664  102.6994  -44.8897 C   0  0  0  1  0  4  0  0  0  0  0  0
   94.4069  101.5970  -44.7435 C   0  0  0  1  0  4  0  0  0  0  0  0
   92.4510   99.9400  -44.6950 C   0  0  0  1  0  4  0  0  0  0  0  0
   91.8210   98.7070  -45.3220 C   0  0  0  1  0  4  0  0  0  0  0  0
   89.6641   94.5801  -44.0791 O   0  0  0  1  0  2  0  0  0  0  0  0
   84.7736   98.5610  -43.7283 I   0  0  0  1  0  1  0  0  0  0  0  0
   87.3185   93.2131  -42.3721 I   0  0  0  1  0  1  0  0  0  0  0  0
   90.6654   98.1803  -43.7171 H   0  0  0  1  0  1  0  0  0  0  0  0
   89.9235   94.4732  -44.9868 H   0  0  0  1  0  1  0  0  0  0  0  0
   85.4420   95.6845  -42.6613 H   0  0  0  1  0  1  0  0  0  0  0  0
   90.6427   96.3492  -45.3020 H   0  0  0  1  0  1  0  0  0  0  0  0
   89.6631   97.4003  -46.3824 H   0  0  0  1  0  1  0  0  0  0  0  0
   92.2147  102.2040  -43.2644 H   0  0  0  1  0  1  0  0  0  0  0  0
   88.6095   99.2654  -44.2068 H   0  0  0  1  0  1  0  0  0  0  0  0
   89.3242   99.8170  -45.7598 H   0  0  0  1  0  1  0  0  0  0  0  0
   87.6113   98.5648  -45.0317 H   0  0  0  1  0  1  0  0  0  0  0  0
   90.4413  100.4594  -42.9731 H   0  0  0  1  0  1  0  0  0  0  0  0
   89.4801  101.5838  -43.9926 H   0  0  0  1  0  1  0  0  0  0  0  0
   91.1614  101.2320  -45.8572 H   0  0  0  1  0  1  0  0  0  0  0  0
   90.8484  103.6842  -45.4309 H   0  0  0  1  0  1  0  0  0  0  0  0
   91.5302  104.4128  -43.9379 H   0  0  0  1  0  1  0  0  0  0  0  0
   89.0973  104.1428  -43.7545 H   0  0  0  1  0  1  0  0  0  0  0  0
   89.9450  103.0842  -42.5754 H   0  0  0  1  0  1  0  0  0  0  0  0
   89.2541  102.3824  -44.0780 H   0  0  0  1  0  1  0  0  0  0  0  0
   93.7575  103.6133  -44.4193 H   0  0  0  1  0  1  0  0  0  0  0  0
   93.1977  102.8813  -45.9615 H   0  0  0  1  0  1  0  0  0  0  0  0
   95.3364  101.8999  -45.2472 H   0  0  0  1  0  1  0  0  0  0  0  0
   94.0275  100.6717  -45.2022 H   0  0  0  1  0  1  0  0  0  0  0  0
   94.6091  101.4208  -43.6770 H   0  0  0  1  0  1  0  0  0  0  0  0
   92.6876   99.7454  -43.6396 H   0  0  0  1  0  1  0  0  0  0  0  0
   93.3718  100.2075  -45.2346 H   0  0  0  1  0  1  0  0  0  0  0  0
   91.6686   98.8910  -46.3961 H   0  0  0  1  0  1  0  0  0  0  0  0
   92.4999   97.8526  -45.1887 H   0  0  0  1  0  1  0  0  0  0  0  0
  1  6  1  0  0  0  0
  1  7  1  0  0  0  0
  1 18  1  0  0  0  0
  1 22  1  0  0  0  0
  2 12  1  0  0  0  0
  2 13  1  0  0  0  0
  2 15  1  0  0  0  0
  2 27  1  0  0  0  0
  3  5  2  0  0  0  0
  3  8  1  0  0  0  0
  3 20  1  0  0  0  0
  4  6  1  0  0  0  0
  4  8  2  0  0  0  0
  4 10  1  0  0  0  0
  5  9  1  0  0  0  0
  5 24  1  0  0  0  0
  6 25  1  0  0  0  0
  6 26  1  0  0  0  0
  7 11  1  0  0  0  0
  7 28  1  0  0  0  0
  7 29  1  0  0  0  0
  8 30  1  0  0  0  0
  9 10  2  0  0  0  0
  9 21  1  0  0  0  0
 10 19  1  0  0  0  0
 11 12  1  0  0  0  0
 11 31  1  0  0  0  0
 11 32  1  0  0  0  0
 12 17  1  0  0  0  0
 12 33  1  0  0  0  0
 13 14  1  0  0  0  0
 13 34  1  0  0  0  0
 13 35  1  0  0  0  0
 14 36  1  0  0  0  0
 14 37  1  0  0  0  0
 14 38  1  0  0  0  0
 15 16  1  0  0  0  0
 15 39  1  0  0  0  0
 15 40  1  0  0  0  0
 16 41  1  0  0  0  0
 16 42  1  0  0  0  0
 16 43  1  0  0  0  0
 17 18  1  0  0  0  0
 17 44  1  0  0  0  0
 17 45  1  0  0  0  0
 18 46  1  0  0  0  0
 18 47  1  0  0  0  0
 19 23  1  0  0  0  0
M  END
> <ConfScore>
-0.672891 

$$$$
4agm


 47 48  0  0  0  0  0  0  0  0999 V2000
   90.4980   98.3810  -44.6910 N   0  3  0  1  0  4  0  0  0  0  0  0
   92.0405  102.3576  -44.2461 N   0  3  0  1  0  4  0  0  0  0  0  0
   92.6290   94.8378  -44.0672 C   0  0  0  1  0  3  0  0  0  0  0  0
   90.8112   95.9735  -45.2160 C   0  0  0  1  0  3  0  0  0  0  0  0
   92.6280   93.8189  -45.0285 C   0  0  0  1  0  3  0  0  0  0  0  0
   89.9050   97.1660  -45.3350 C   0  0  0  1  0  4  0  0  0  0  0  0
   89.5430   99.5450  -44.7170 C   0  0  0  1  0  4  0  0  0  0  0  0
   91.7279   95.9096  -44.1589 C   0  0  0  1  0  3  0  0  0  0  0  0
   91.6991   93.8995  -46.0788 C   0  0  0  1  0  3  0  0  0  0  0  0
   90.7810   94.9585  -46.2084 C   0  0  0  1  0  3  0  0  0  0  0  0
   90.1750  100.7310  -44.0050 C   0  0  0  1  0  4  0  0  0  0  0  0
   91.4300  101.0810  -44.8020 C   0  0  0  1  0  4  0  0  0  0  0  0
   91.0627  103.5137  -44.3648 C   0  0  0  1  0  4  0  0  0  0  0  0
   89.7362  103.2491  -43.6737 C   0  0  0  1  0  4  0  0  0  0  0  0
   93.3664  102.6994  -44.8897 C   0  0  0  1  0  4  0  0  0  0  0  0
   94.4437  101.6528  -44.6381 C   0  0  0  1  0  4  0  0  0  0  0  0
   92.4510   99.9400  -44.6950 C   0  0  0  1  0  4  0  0  0  0  0  0
   91.8210   98.7070  -45.3220 C   0  0  0  1  0  4  0  0  0  0  0  0
   89.8948   95.0079  -47.2492 O   0  0  0  1  0  2  0  0  0  0  0  0
   94.0041   94.7600  -42.4596 I   0  0  0  1  0  1  0  0  0  0  0  0
   91.6787   92.3581  -47.5330 I   0  0  0  1  0  1  0  0  0  0  0  0
   90.6654   98.1803  -43.7171 H   0  0  0  1  0  1  0  0  0  0  0  0
   89.0679   94.6273  -46.9772 H   0  0  0  1  0  1  0  0  0  0  0  0
   93.3248   92.9912  -44.9636 H   0  0  0  1  0  1  0  0  0  0  0  0
   89.7316   97.3768  -46.4017 H   0  0  0  1  0  1  0  0  0  0  0  0
   88.9469   96.9354  -44.8458 H   0  0  0  1  0  1  0  0  0  0  0  0
   92.2147  102.2040  -43.2644 H   0  0  0  1  0  1  0  0  0  0  0  0
   88.6095   99.2654  -44.2068 H   0  0  0  1  0  1  0  0  0  0  0  0
   89.3242   99.8170  -45.7598 H   0  0  0  1  0  1  0  0  0  0  0  0
   91.7412   96.6918  -43.4081 H   0  0  0  1  0  1  0  0  0  0  0  0
   90.4413  100.4594  -42.9731 H   0  0  0  1  0  1  0  0  0  0  0  0
   89.4801  101.5838  -43.9926 H   0  0  0  1  0  1  0  0  0  0  0  0
   91.1614  101.2320  -45.8572 H   0  0  0  1  0  1  0  0  0  0  0  0
   90.8693  103.7017  -45.4320 H   0  0  0  1  0  1  0  0  0  0  0  0
   91.5197  104.4064  -43.9136 H   0  0  0  1  0  1  0  0  0  0  0  0
   89.0776  104.1217  -43.7987 H   0  0  0  1  0  1  0  0  0  0  0  0
   89.9089  103.0698  -42.6020 H   0  0  0  1  0  1  0  0  0  0  0  0
   89.2597  102.3636  -44.1211 H   0  0  0  1  0  1  0  0  0  0  0  0
   93.7131  103.6615  -44.4853 H   0  0  0  1  0  1  0  0  0  0  0  0
   93.2143  102.7908  -45.9754 H   0  0  0  1  0  1  0  0  0  0  0  0
   95.3719  101.9514  -45.1465 H   0  0  0  1  0  1  0  0  0  0  0  0
   94.1089  100.6807  -45.0298 H   0  0  0  1  0  1  0  0  0  0  0  0
   94.6292  101.5679  -43.5575 H   0  0  0  1  0  1  0  0  0  0  0  0
   92.6876   99.7454  -43.6396 H   0  0  0  1  0  1  0  0  0  0  0  0
   93.3718  100.2075  -45.2346 H   0  0  0  1  0  1  0  0  0  0  0  0
   91.6686   98.8910  -46.3961 H   0  0  0  1  0  1  0  0  0  0  0  0
   92.4999   97.8526  -45.1887 H   0  0  0  1  0  1  0  0  0  0  0  0
  1  6  1  0  0  0  0
  1  7  1  0  0  0  0
  1 18  1  0  0  0  0
  1 22  1  0  0  0  0
  2 12  1  0  0  0  0
  2 13  1  0  0  0  0
  2 15  1  0  0  0  0
  2 27  1  0  0  0  0
  3  5  2  0  0  0  0
  3  8  1  0  0  0  0
  3 20  1  0  0  0  0
  4  6  1  0  0  0  0
  4  8  2  0  0  0  0
  4 10  1  0  0  0  0
  5  9  1  0  0  0  0
  5 24  1  0  0  0  0
  6 25  1  0  0  0  0
  6 26  1  0  0  0  0
  7 11  1  0  0  0  0
  7 28  1  0  0  0  0
  7 29  1  0  0  0  0
  8 30  1  0  0  0  0
  9 10  2  0  0  0  0
  9 21  1  0  0  0  0
 10 19  1  0  0  0  0
 11 12  1  0  0  0  0
 11 31  1  0  0  0  0
 11 32  1  0  0  0  0
 12 17  1  0  0  0  0
 12 33  1  0  0  0  0
 13 14  1  0  0  0  0
 13 34  1  0  0  0  0
 13 35  1  0  0  0  0
 14 36  1  0  0  0  0
 14 37  1  0  0  0  0
 14 38  1  0  0  0  0
 15 16  1  0  0  0  0
 15 39  1  0  0  0  0
 15 40  1  0  0  0  0
 16 41  1  0  0  0  0
 16 42  1  0  0  0  0
 16 43  1  0  0  0  0
 17 18  1  0  0  0  0
 17 44  1  0  0  0  0
 17 45  1  0  0  0  0
 18 46  1  0  0  0  0
 18 47  1  0  0  0  0
 19 23  1  0  0  0  0
M  END
> <ConfScore>
-0.670257 

$$$$
4agm


 47 48  0  0  0  0  0  0  0  0999 V2000
   90.4980   98.3810  -44.6910 N   0  3  0  1  0  4  0  0  0  0  0  0
   92.0405  102.3576  -44.2461 N   0  3  0  1  0  4  0  0  0  0  0  0
   92.5715   94.7991  -44.0176 C   0  0  0  1  0  3  0  0  0  0  0  0
   90.8112   95.9735  -45.2160 C   0  0  0  1  0  3  0  0  0  0  0  0
   92.6292   93.8208  -45.0187 C   0  0  0  1  0  3  0  0  0  0  0  0
   89.9050   97.1660  -45.3350 C   0  0  0  1  0  4  0  0  0  0  0  0
   89.5430   99.5450  -44.7170 C   0  0  0  1  0  4  0  0  0  0  0  0
   91.6697   95.8698  -44.1141 C   0  0  0  1  0  3  0  0  0  0  0  0
   91.7580   93.9408  -46.1137 C   0  0  0  1  0  3  0  0  0  0  0  0
   90.8414   95.0003  -46.2495 C   0  0  0  1  0  3  0  0  0  0  0  0
   90.1750  100.7310  -44.0050 C   0  0  0  1  0  4  0  0  0  0  0  0
   91.4300  101.0810  -44.8020 C   0  0  0  1  0  4  0  0  0  0  0  0
   91.0627  103.5137  -44.3648 C   0  0  0  1  0  4  0  0  0  0  0  0
   89.7362  103.2491  -43.6737 C   0  0  0  1  0  4  0  0  0  0  0  0
   93.3664  102.6994  -44.8897 C   0  0  0  1  0  4  0  0  0  0  0  0
   94.4437  101.6528  -44.6381 C   0  0  0  1  0  4  0  0  0  0  0  0
   92.4510   99.9400  -44.6950 C   0  0  0  1  0  4  0  0  0  0  0  0
   91.8210   98.7070  -45.3220 C   0  0  0  1  0  4  0  0  0  0  0  0
   90.0126   95.0889  -47.3340 O   0  0  0  1  0  2  0  0  0  0  0  0
   93.8580   94.6607  -42.3422 I   0  0  0  1  0  1  0  0  0  0  0  0
   91.8266   92.4608  -47.6290 I   0  0  0  1  0  1  0  0  0  0  0  0
   90.6654   98.1803  -43.7171 H   0  0  0  1  0  1  0  0  0  0  0  0
   89.1747   94.6938  -47.1232 H   0  0  0  1  0  1  0  0  0  0  0  0
   93.3269   92.9942  -44.9500 H   0  0  0  1  0  1  0  0  0  0  0  0
   89.7316   97.3768  -46.4017 H   0  0  0  1  0  1  0  0  0  0  0  0
   88.9469   96.9354  -44.8458 H   0  0  0  1  0  1  0  0  0  0  0  0
   92.2147  102.2040  -43.2644 H   0  0  0  1  0  1  0  0  0  0  0  0
   88.6095   99.2654  -44.2068 H   0  0  0  1  0  1  0  0  0  0  0  0
   89.3242   99.8170  -45.7598 H   0  0  0  1  0  1  0  0  0  0  0  0
   91.6373   96.6203  -43.3322 H   0  0  0  1  0  1  0  0  0  0  0  0
   90.4413  100.4594  -42.9731 H   0  0  0  1  0  1  0  0  0  0  0  0
   89.4801  101.5838  -43.9926 H   0  0  0  1  0  1  0  0  0  0  0  0
   91.1614  101.2320  -45.8572 H   0  0  0  1  0  1  0  0  0  0  0  0
   90.8693  103.7017  -45.4320 H   0  0  0  1  0  1  0  0  0  0  0  0
   91.5197  104.4064  -43.9136 H   0  0  0  1  0  1  0  0  0  0  0  0
   89.2523  102.3738  -44.1326 H   0  0  0  1  0  1  0  0  0  0  0  0
   89.0834  104.1281  -43.7814 H   0  0  0  1  0  1  0  0  0  0  0  0
   89.9120  103.0521  -42.6053 H   0  0  0  1  0  1  0  0  0  0  0  0
   93.7131  103.6615  -44.4853 H   0  0  0  1  0  1  0  0  0  0  0  0
   93.2143  102.7908  -45.9754 H   0  0  0  1  0  1  0  0  0  0  0  0
   95.3719  101.9514  -45.1465 H   0  0  0  1  0  1  0  0  0  0  0  0
   94.1089  100.6807  -45.0298 H   0  0  0  1  0  1  0  0  0  0  0  0
   94.6292  101.5679  -43.5575 H   0  0  0  1  0  1  0  0  0  0  0  0
   92.6876   99.7454  -43.6396 H   0  0  0  1  0  1  0  0  0  0  0  0
   93.3718  100.2075  -45.2346 H   0  0  0  1  0  1  0  0  0  0  0  0
   91.6686   98.8910  -46.3961 H   0  0  0  1  0  1  0  0  0  0  0  0
   92.4999   97.8526  -45.1887 H   0  0  0  1  0  1  0  0  0  0  0  0
  1  6  1  0  0  0  0
  1  7  1  0  0  0  0
  1 18  1  0  0  0  0
  1 22  1  0  0  0  0
  2 12  1  0  0  0  0
  2 13  1  0  0  0  0
  2 15  1  0  0  0  0
  2 27  1  0  0  0  0
  3  5  2  0  0  0  0
  3  8  1  0  0  0  0
  3 20  1  0  0  0  0
  4  6  1  0  0  0  0
  4  8  2  0  0  0  0
  4 10  1  0  0  0  0
  5  9  1  0  0  0  0
  5 24  1  0  0  0  0
  6 25  1  0  0  0  0
  6 26  1  0  0  0  0
  7 11  1  0  0  0  0
  7 28  1  0  0  0  0
  7 29  1  0  0  0  0
  8 30  1  0  0  0  0
  9 10  2  0  0  0  0
  9 21  1  0  0  0  0
 10 19  1  0  0  0  0
 11 12  1  0  0  0  0
 11 31  1  0  0  0  0
 11 32  1  0  0  0  0
 12 17  1  0  0  0  0
 12 33  1  0  0  0  0
 13 14  1  0  0  0  0
 13 34  1  0  0  0  0
 13 35  1  0  0  0  0
 14 36  1  0  0  0  0
 14 37  1  0  0  0  0
 14 38  1  0  0  0  0
 15 16  1  0  0  0  0
 15 39  1  0  0  0  0
 15 40  1  0  0  0  0
 16 41  1  0  0  0  0
 16 42  1  0  0  0  0
 16 43  1  0  0  0  0
 17 18  1  0  0  0  0
 17 44  1  0  0  0  0
 17 45  1  0  0  0  0
 18 46  1  0  0  0  0
 18 47  1  0  0  0  0
 19 23  1  0  0  0  0
M  END
> <ConfScore>
-0.670257 

$$$$
4agm


 47 48  0  0  0  0  0  0  0  0999 V2000
   90.4980   98.3810  -44.6910 N   0  3  0  1  0  4  0  0  0  0  0  0
   92.0405  102.3576  -44.2461 N   0  3  0  1  0  4  0  0  0  0  0  0
   91.0477   93.5495  -45.0827 C   0  0  0  1  0  3  0  0  0  0  0  0
   90.4948   95.8988  -44.7838 C   0  0  0  1  0  3  0  0  0  0  0  0
   91.4685   93.4573  -43.7498 C   0  0  0  1  0  3  0  0  0  0  0  0
   89.9050   97.1660  -45.3350 C   0  0  0  1  0  4  0  0  0  0  0  0
   89.5430   99.5450  -44.7170 C   0  0  0  1  0  4  0  0  0  0  0  0
   90.5627   94.7613  -45.5982 C   0  0  0  1  0  3  0  0  0  0  0  0
   91.3956   94.6098  -42.9505 C   0  0  0  1  0  3  0  0  0  0  0  0
   90.9131   95.8428  -43.4281 C   0  0  0  1  0  3  0  0  0  0  0  0
   90.1750  100.7310  -44.0050 C   0  0  0  1  0  4  0  0  0  0  0  0
   91.4300  101.0810  -44.8020 C   0  0  0  1  0  4  0  0  0  0  0  0
   91.0627  103.5137  -44.3648 C   0  0  0  1  0  4  0  0  0  0  0  0
   89.7362  103.2491  -43.6737 C   0  0  0  1  0  4  0  0  0  0  0  0
   93.3664  102.6994  -44.8897 C   0  0  0  1  0  4  0  0  0  0  0  0
   94.4437  101.6528  -44.6381 C   0  0  0  1  0  4  0  0  0  0  0  0
   92.4510   99.9400  -44.6950 C   0  0  0  1  0  4  0  0  0  0  0  0
   91.8210   98.7070  -45.3220 C   0  0  0  1  0  4  0  0  0  0  0  0
   90.8496   96.9433  -42.6183 O   0  0  0  1  0  2  0  0  0  0  0  0
   91.1441   91.8435  -46.3322 I   0  0  0  1  0  1  0  0  0  0  0  0
   92.0408   94.4870  -40.9355 I   0  0  0  1  0  1  0  0  0  0  0  0
   90.6654   98.1803  -43.7171 H   0  0  0  1  0  1  0  0  0  0  0  0
   91.6345   97.4657  -42.7347 H   0  0  0  1  0  1  0  0  0  0  0  0
   91.8402   92.5224  -43.3465 H   0  0  0  1  0  1  0  0  0  0  0  0
   90.0976   97.2070  -46.4183 H   0  0  0  1  0  1  0  0  0  0  0  0
   88.8196   97.1614  -45.1549 H   0  0  0  1  0  1  0  0  0  0  0  0
   92.2147  102.2040  -43.2644 H   0  0  0  1  0  1  0  0  0  0  0  0
   88.6095   99.2654  -44.2068 H   0  0  0  1  0  1  0  0  0  0  0  0
   89.3242   99.8170  -45.7598 H   0  0  0  1  0  1  0  0  0  0  0  0
   90.2392   94.8172  -46.6316 H   0  0  0  1  0  1  0  0  0  0  0  0
   90.4413  100.4594  -42.9731 H   0  0  0  1  0  1  0  0  0  0  0  0
   89.4801  101.5838  -43.9926 H   0  0  0  1  0  1  0  0  0  0  0  0
   91.1614  101.2320  -45.8572 H   0  0  0  1  0  1  0  0  0  0  0  0
   90.8693  103.7017  -45.4320 H   0  0  0  1  0  1  0  0  0  0  0  0
   91.5197  104.4064  -43.9136 H   0  0  0  1  0  1  0  0  0  0  0  0
   89.0776  104.1217  -43.7987 H   0  0  0  1  0  1  0  0  0  0  0  0
   89.9089  103.0698  -42.6020 H   0  0  0  1  0  1  0  0  0  0  0  0
   89.2597  102.3636  -44.1211 H   0  0  0  1  0  1  0  0  0  0  0  0
   93.7131  103.6615  -44.4853 H   0  0  0  1  0  1  0  0  0  0  0  0
   93.2143  102.7908  -45.9754 H   0  0  0  1  0  1  0  0  0  0  0  0
   95.3719  101.9514  -45.1465 H   0  0  0  1  0  1  0  0  0  0  0  0
   94.1089  100.6807  -45.0298 H   0  0  0  1  0  1  0  0  0  0  0  0
   94.6292  101.5679  -43.5575 H   0  0  0  1  0  1  0  0  0  0  0  0
   92.6876   99.7454  -43.6396 H   0  0  0  1  0  1  0  0  0  0  0  0
   93.3718  100.2075  -45.2346 H   0  0  0  1  0  1  0  0  0  0  0  0
   91.6686   98.8910  -46.3961 H   0  0  0  1  0  1  0  0  0  0  0  0
   92.4999   97.8526  -45.1887 H   0  0  0  1  0  1  0  0  0  0  0  0
  1  6  1  0  0  0  0
  1  7  1  0  0  0  0
  1 18  1  0  0  0  0
  1 22  1  0  0  0  0
  2 12  1  0  0  0  0
  2 13  1  0  0  0  0
  2 15  1  0  0  0  0
  2 27  1  0  0  0  0
  3  5  2  0  0  0  0
  3  8  1  0  0  0  0
  3 20  1  0  0  0  0
  4  6  1  0  0  0  0
  4  8  2  0  0  0  0
  4 10  1  0  0  0  0
  5  9  1  0  0  0  0
  5 24  1  0  0  0  0
  6 25  1  0  0  0  0
  6 26  1  0  0  0  0
  7 11  1  0  0  0  0
  7 28  1  0  0  0  0
  7 29  1  0  0  0  0
  8 30  1  0  0  0  0
  9 10  2  0  0  0  0
  9 21  1  0  0  0  0
 10 19  1  0  0  0  0
 11 12  1  0  0  0  0
 11 31  1  0  0  0  0
 11 32  1  0  0  0  0
 12 17  1  0  0  0  0
 12 33  1  0  0  0  0
 13 14  1  0  0  0  0
 13 34  1  0  0  0  0
 13 35  1  0  0  0  0
 14 36  1  0  0  0  0
 14 37  1  0  0  0  0
 14 38  1  0  0  0  0
 15 16  1  0  0  0  0
 15 39  1  0  0  0  0
 15 40  1  0  0  0  0
 16 41  1  0  0  0  0
 16 42  1  0  0  0  0
 16 43  1  0  0  0  0
 17 18  1  0  0  0  0
 17 44  1  0  0  0  0
 17 45  1  0  0  0  0
 18 46  1  0  0  0  0
 18 47  1  0  0  0  0
 19 23  1  0  0  0  0
M  END
> <ConfScore>
-0.664915 

$$$$
4agm


 47 48  0  0  0  0  0  0  0  0999 V2000
   90.4980   98.3810  -44.6910 N   0  3  0  1  0  4  0  0  0  0  0  0
   92.0405  102.3576  -44.2461 N   0  3  0  1  0  4  0  0  0  0  0  0
   91.0671   93.5552  -45.0905 C   0  0  0  1  0  3  0  0  0  0  0  0
   90.4948   95.8988  -44.7838 C   0  0  0  1  0  3  0  0  0  0  0  0
   91.4690   93.4565  -43.7522 C   0  0  0  1  0  3  0  0  0  0  0  0
   89.9050   97.1660  -45.3350 C   0  0  0  1  0  4  0  0  0  0  0  0
   89.5430   99.5450  -44.7170 C   0  0  0  1  0  4  0  0  0  0  0  0
   90.5820   94.7674  -45.6049 C   0  0  0  1  0  3  0  0  0  0  0  0
   91.3769   94.6030  -42.9462 C   0  0  0  1  0  3  0  0  0  0  0  0
   90.8934   95.8361  -43.4225 C   0  0  0  1  0  3  0  0  0  0  0  0
   90.1750  100.7310  -44.0050 C   0  0  0  1  0  4  0  0  0  0  0  0
   91.4300  101.0810  -44.8020 C   0  0  0  1  0  4  0  0  0  0  0  0
   92.4671  102.1613  -42.8017 C   0  0  0  1  0  4  0  0  0  0  0  0
   93.4462  101.0146  -42.6173 C   0  0  0  1  0  4  0  0  0  0  0  0
   91.1224  103.5522  -44.3836 C   0  0  0  1  0  4  0  0  0  0  0  0
   90.8135  103.9087  -45.8316 C   0  0  0  1  0  4  0  0  0  0  0  0
   92.4510   99.9400  -44.6950 C   0  0  0  1  0  4  0  0  0  0  0  0
   91.8210   98.7070  -45.3220 C   0  0  0  1  0  4  0  0  0  0  0  0
   90.8109   96.9306  -42.6063 O   0  0  0  1  0  2  0  0  0  0  0  0
   91.1930   91.8585  -46.3500 I   0  0  0  1  0  1  0  0  0  0  0  0
   91.9931   94.4704  -40.9229 I   0  0  0  1  0  1  0  0  0  0  0  0
   90.6654   98.1803  -43.7171 H   0  0  0  1  0  1  0  0  0  0  0  0
   91.5941   97.4587  -42.7075 H   0  0  0  1  0  1  0  0  0  0  0  0
   91.8407   92.5212  -43.3498 H   0  0  0  1  0  1  0  0  0  0  0  0
   90.0976   97.2070  -46.4183 H   0  0  0  1  0  1  0  0  0  0  0  0
   88.8196   97.1614  -45.1549 H   0  0  0  1  0  1  0  0  0  0  0  0
   92.8698  102.5533  -44.7860 H   0  0  0  1  0  1  0  0  0  0  0  0
   88.6095   99.2654  -44.2068 H   0  0  0  1  0  1  0  0  0  0  0  0
   89.3242   99.8170  -45.7598 H   0  0  0  1  0  1  0  0  0  0  0  0
   90.2734   94.8284  -46.6425 H   0  0  0  1  0  1  0  0  0  0  0  0
   90.4413  100.4594  -42.9731 H   0  0  0  1  0  1  0  0  0  0  0  0
   89.4801  101.5838  -43.9926 H   0  0  0  1  0  1  0  0  0  0  0  0
   91.1614  101.2320  -45.8572 H   0  0  0  1  0  1  0  0  0  0  0  0
   91.5713  101.9567  -42.1957 H   0  0  0  1  0  1  0  0  0  0  0  0
   92.9433  103.0874  -42.4484 H   0  0  0  1  0  1  0  0  0  0  0  0
   92.9746  100.0746  -42.9410 H   0  0  0  1  0  1  0  0  0  0  0  0
   93.7275  100.9380  -41.5564 H   0  0  0  1  0  1  0  0  0  0  0  0
   94.3465  101.2000  -43.2225 H   0  0  0  1  0  1  0  0  0  0  0  0
   91.6026  104.4184  -43.9056 H   0  0  0  1  0  1  0  0  0  0  0  0
   90.1763  103.3266  -43.8694 H   0  0  0  1  0  1  0  0  0  0  0  0
   90.1296  104.7694  -45.8603 H   0  0  0  1  0  1  0  0  0  0  0  0
   90.3396  103.0486  -46.3278 H   0  0  0  1  0  1  0  0  0  0  0  0
   91.7463  104.1648  -46.3547 H   0  0  0  1  0  1  0  0  0  0  0  0
   92.6876   99.7454  -43.6396 H   0  0  0  1  0  1  0  0  0  0  0  0
   93.3718  100.2075  -45.2346 H   0  0  0  1  0  1  0  0  0  0  0  0
   91.6686   98.8910  -46.3961 H   0  0  0  1  0  1  0  0  0  0  0  0
   92.4999   97.8526  -45.1887 H   0  0  0  1  0  1  0  0  0  0  0  0
  1  6  1  0  0  0  0
  1  7  1  0  0  0  0
  1 18  1  0  0  0  0
  1 22  1  0  0  0  0
  2 12  1  0  0  0  0
  2 13  1  0  0  0  0
  2 15  1  0  0  0  0
  2 27  1  0  0  0  0
  3  5  2  0  0  0  0
  3  8  1  0  0  0  0
  3 20  1  0  0  0  0
  4  6  1  0  0  0  0
  4  8  2  0  0  0  0
  4 10  1  0  0  0  0
  5  9  1  0  0  0  0
  5 24  1  0  0  0  0
  6 25  1  0  0  0  0
  6 26  1  0  0  0  0
  7 11  1  0  0  0  0
  7 28  1  0  0  0  0
  7 29  1  0  0  0  0
  8 30  1  0  0  0  0
  9 10  2  0  0  0  0
  9 21  1  0  0  0  0
 10 19  1  0  0  0  0
 11 12  1  0  0  0  0
 11 31  1  0  0  0  0
 11 32  1  0  0  0  0
 12 17  1  0  0  0  0
 12 33  1  0  0  0  0
 13 14  1  0  0  0  0
 13 34  1  0  0  0  0
 13 35  1  0  0  0  0
 14 36  1  0  0  0  0
 14 37  1  0  0  0  0
 14 38  1  0  0  0  0
 15 16  1  0  0  0  0
 15 39  1  0  0  0  0
 15 40  1  0  0  0  0
 16 41  1  0  0  0  0
 16 42  1  0  0  0  0
 16 43  1  0  0  0  0
 17 18  1  0  0  0  0
 17 44  1  0  0  0  0
 17 45  1  0  0  0  0
 18 46  1  0  0  0  0
 18 47  1  0  0  0  0
 19 23  1  0  0  0  0
M  END
> <ConfScore>
-0.663488 

$$$$
4agm


 47 48  0  0  0  0  0  0  0  0999 V2000
   90.4980   98.3810  -44.6910 N   0  3  0  1  0  4  0  0  0  0  0  0
   92.0405  102.3576  -44.2461 N   0  3  0  1  0  4  0  0  0  0  0  0
   91.0477   93.5495  -45.0827 C   0  0  0  1  0  3  0  0  0  0  0  0
   90.4948   95.8988  -44.7838 C   0  0  0  1  0  3  0  0  0  0  0  0
   91.4685   93.4573  -43.7498 C   0  0  0  1  0  3  0  0  0  0  0  0
   89.9050   97.1660  -45.3350 C   0  0  0  1  0  4  0  0  0  0  0  0
   89.5430   99.5450  -44.7170 C   0  0  0  1  0  4  0  0  0  0  0  0
   90.5627   94.7613  -45.5982 C   0  0  0  1  0  3  0  0  0  0  0  0
   91.3956   94.6098  -42.9505 C   0  0  0  1  0  3  0  0  0  0  0  0
   90.9131   95.8428  -43.4281 C   0  0  0  1  0  3  0  0  0  0  0  0
   90.1750  100.7310  -44.0050 C   0  0  0  1  0  4  0  0  0  0  0  0
   91.4300  101.0810  -44.8020 C   0  0  0  1  0  4  0  0  0  0  0  0
   92.5073  102.1483  -42.8160 C   0  0  0  1  0  4  0  0  0  0  0  0
   93.5038  101.0109  -42.6720 C   0  0  0  1  0  4  0  0  0  0  0  0
   91.1057  103.5431  -44.3443 C   0  0  0  1  0  4  0  0  0  0  0  0
   90.7547  103.9139  -45.7790 C   0  0  0  1  0  4  0  0  0  0  0  0
   92.4510   99.9400  -44.6950 C   0  0  0  1  0  4  0  0  0  0  0  0
   91.8210   98.7070  -45.3220 C   0  0  0  1  0  4  0  0  0  0  0  0
   90.8496   96.9433  -42.6183 O   0  0  0  1  0  2  0  0  0  0  0  0
   91.1441   91.8435  -46.3322 I   0  0  0  1  0  1  0  0  0  0  0  0
   92.0408   94.4870  -40.9355 I   0  0  0  1  0  1  0  0  0  0  0  0
   90.6654   98.1803  -43.7171 H   0  0  0  1  0  1  0  0  0  0  0  0
   91.6345   97.4657  -42.7347 H   0  0  0  1  0  1  0  0  0  0  0  0
   91.8402   92.5224  -43.3465 H   0  0  0  1  0  1  0  0  0  0  0  0
   90.0976   97.2070  -46.4183 H   0  0  0  1  0  1  0  0  0  0  0  0
   88.8196   97.1614  -45.1549 H   0  0  0  1  0  1  0  0  0  0  0  0
   92.8530  102.5696  -44.8050 H   0  0  0  1  0  1  0  0  0  0  0  0
   88.6095   99.2654  -44.2068 H   0  0  0  1  0  1  0  0  0  0  0  0
   89.3242   99.8170  -45.7598 H   0  0  0  1  0  1  0  0  0  0  0  0
   90.2392   94.8172  -46.6316 H   0  0  0  1  0  1  0  0  0  0  0  0
   90.4413  100.4594  -42.9731 H   0  0  0  1  0  1  0  0  0  0  0  0
   89.4801  101.5838  -43.9926 H   0  0  0  1  0  1  0  0  0  0  0  0
   91.1614  101.2320  -45.8572 H   0  0  0  1  0  1  0  0  0  0  0  0
   91.6301  101.9258  -42.1894 H   0  0  0  1  0  1  0  0  0  0  0  0
   92.9822  103.0754  -42.4636 H   0  0  0  1  0  1  0  0  0  0  0  0
   94.3853  101.2147  -43.2982 H   0  0  0  1  0  1  0  0  0  0  0  0
   93.0354  100.0685  -42.9928 H   0  0  0  1  0  1  0  0  0  0  0  0
   93.8140  100.9261  -41.6194 H   0  0  0  1  0  1  0  0  0  0  0  0
   91.5885  104.4088  -43.8680 H   0  0  0  1  0  1  0  0  0  0  0  0
   90.1761  103.3001  -43.8083 H   0  0  0  1  0  1  0  0  0  0  0  0
   90.0606  104.7669  -45.7787 H   0  0  0  1  0  1  0  0  0  0  0  0
   90.2775  103.0546  -46.2734 H   0  0  0  1  0  1  0  0  0  0  0  0
   91.6704  104.1873  -46.3231 H   0  0  0  1  0  1  0  0  0  0  0  0
   92.6876   99.7454  -43.6396 H   0  0  0  1  0  1  0  0  0  0  0  0
   93.3718  100.2075  -45.2346 H   0  0  0  1  0  1  0  0  0  0  0  0
   91.6686   98.8910  -46.3961 H   0  0  0  1  0  1  0  0  0  0  0  0
   92.4999   97.8526  -45.1887 H   0  0  0  1  0  1  0  0  0  0  0  0
  1  6  1  0  0  0  0
  1  7  1  0  0  0  0
  1 18  1  0  0  0  0
  1 22  1  0  0  0  0
  2 12  1  0  0  0  0
  2 13  1  0  0  0  0
  2 15  1  0  0  0  0
  2 27  1  0  0  0  0
  3  5  2  0  0  0  0
  3  8  1  0  0  0  0
  3 20  1  0  0  0  0
  4  6  1  0  0  0  0
  4  8  2  0  0  0  0
  4 10  1  0  0  0  0
  5  9  1  0  0  0  0
  5 24  1  0  0  0  0
  6 25  1  0  0  0  0
  6 26  1  0  0  0  0
  7 11  1  0  0  0  0
  7 28  1  0  0  0  0
  7 29  1  0  0  0  0
  8 30  1  0  0  0  0
  9 10  2  0  0  0  0
  9 21  1  0  0  0  0
 10 19  1  0  0  0  0
 11 12  1  0  0  0  0
 11 31  1  0  0  0  0
 11 32  1  0  0  0  0
 12 17  1  0  0  0  0
 12 33  1  0  0  0  0
 13 14  1  0  0  0  0
 13 34  1  0  0  0  0
 13 35  1  0  0  0  0
 14 36  1  0  0  0  0
 14 37  1  0  0  0  0
 14 38  1  0  0  0  0
 15 16  1  0  0  0  0
 15 39  1  0  0  0  0
 15 40  1  0  0  0  0
 16 41  1  0  0  0  0
 16 42  1  0  0  0  0
 16 43  1  0  0  0  0
 17 18  1  0  0  0  0
 17 44  1  0  0  0  0
 17 45  1  0  0  0  0
 18 46  1  0  0  0  0
 18 47  1  0  0  0  0
 19 23  1  0  0  0  0
M  END
> <ConfScore>
-0.663488 

$$$$
4agm


 47 48  0  0  0  0  0  0  0  0999 V2000
   90.4980   98.3810  -44.6910 N   0  3  0  1  0  4  0  0  0  0  0  0
   92.0405  102.3576  -44.2461 N   0  3  0  1  0  4  0  0  0  0  0  0
   91.0477   93.5495  -45.0827 C   0  0  0  1  0  3  0  0  0  0  0  0
   90.4948   95.8988  -44.7838 C   0  0  0  1  0  3  0  0  0  0  0  0
   91.4685   93.4573  -43.7498 C   0  0  0  1  0  3  0  0  0  0  0  0
   89.9050   97.1660  -45.3350 C   0  0  0  1  0  4  0  0  0  0  0  0
   89.5430   99.5450  -44.7170 C   0  0  0  1  0  4  0  0  0  0  0  0
   90.5627   94.7613  -45.5982 C   0  0  0  1  0  3  0  0  0  0  0  0
   91.3956   94.6098  -42.9505 C   0  0  0  1  0  3  0  0  0  0  0  0
   90.9131   95.8428  -43.4281 C   0  0  0  1  0  3  0  0  0  0  0  0
   90.1750  100.7310  -44.0050 C   0  0  0  1  0  4  0  0  0  0  0  0
   91.4300  101.0810  -44.8020 C   0  0  0  1  0  4  0  0  0  0  0  0
   93.2760  102.7484  -45.0383 C   0  0  0  1  0  4  0  0  0  0  0  0
   93.0041  102.9266  -46.5221 C   0  0  0  1  0  4  0  0  0  0  0  0
   92.3508  102.2613  -42.7684 C   0  0  0  1  0  4  0  0  0  0  0  0
   91.1385  101.8952  -41.9227 C   0  0  0  1  0  4  0  0  0  0  0  0
   92.4510   99.9400  -44.6950 C   0  0  0  1  0  4  0  0  0  0  0  0
   91.8210   98.7070  -45.3220 C   0  0  0  1  0  4  0  0  0  0  0  0
   90.8496   96.9433  -42.6183 O   0  0  0  1  0  2  0  0  0  0  0  0
   91.1441   91.8435  -46.3322 I   0  0  0  1  0  1  0  0  0  0  0  0
   92.0408   94.4870  -40.9355 I   0  0  0  1  0  1  0  0  0  0  0  0
   90.6654   98.1803  -43.7171 H   0  0  0  1  0  1  0  0  0  0  0  0
   91.6345   97.4657  -42.7347 H   0  0  0  1  0  1  0  0  0  0  0  0
   91.8402   92.5224  -43.3465 H   0  0  0  1  0  1  0  0  0  0  0  0
   90.0976   97.2070  -46.4183 H   0  0  0  1  0  1  0  0  0  0  0  0
   88.8196   97.1614  -45.1549 H   0  0  0  1  0  1  0  0  0  0  0  0
   91.3582  103.0915  -44.3618 H   0  0  0  1  0  1  0  0  0  0  0  0
   88.6095   99.2654  -44.2068 H   0  0  0  1  0  1  0  0  0  0  0  0
   89.3242   99.8170  -45.7598 H   0  0  0  1  0  1  0  0  0  0  0  0
   90.2392   94.8172  -46.6316 H   0  0  0  1  0  1  0  0  0  0  0  0
   90.4413  100.4594  -42.9731 H   0  0  0  1  0  1  0  0  0  0  0  0
   89.4801  101.5838  -43.9926 H   0  0  0  1  0  1  0  0  0  0  0  0
   91.1614  101.2320  -45.8572 H   0  0  0  1  0  1  0  0  0  0  0  0
   94.0359  101.9618  -44.9144 H   0  0  0  1  0  1  0  0  0  0  0  0
   93.6631  103.6966  -44.6378 H   0  0  0  1  0  1  0  0  0  0  0  0
   92.6415  101.9774  -46.9446 H   0  0  0  1  0  1  0  0  0  0  0  0
   93.9316  103.2254  -47.0329 H   0  0  0  1  0  1  0  0  0  0  0  0
   92.2402  103.7061  -46.6641 H   0  0  0  1  0  1  0  0  0  0  0  0
   92.7331  103.2346  -42.4278 H   0  0  0  1  0  1  0  0  0  0  0  0
   93.1238  101.4920  -42.6233 H   0  0  0  1  0  1  0  0  0  0  0  0
   91.4355  101.8234  -40.8663 H   0  0  0  1  0  1  0  0  0  0  0  0
   90.7379  100.9263  -42.2564 H   0  0  0  1  0  1  0  0  0  0  0  0
   90.3649  102.6689  -42.0338 H   0  0  0  1  0  1  0  0  0  0  0  0
   92.6876   99.7454  -43.6396 H   0  0  0  1  0  1  0  0  0  0  0  0
   93.3718  100.2075  -45.2346 H   0  0  0  1  0  1  0  0  0  0  0  0
   91.6686   98.8910  -46.3961 H   0  0  0  1  0  1  0  0  0  0  0  0
   92.4999   97.8526  -45.1887 H   0  0  0  1  0  1  0  0  0  0  0  0
  1  6  1  0  0  0  0
  1  7  1  0  0  0  0
  1 18  1  0  0  0  0
  1 22  1  0  0  0  0
  2 12  1  0  0  0  0
  2 13  1  0  0  0  0
  2 15  1  0  0  0  0
  2 27  1  0  0  0  0
  3  5  2  0  0  0  0
  3  8  1  0  0  0  0
  3 20  1  0  0  0  0
  4  6  1  0  0  0  0
  4  8  2  0  0  0  0
  4 10  1  0  0  0  0
  5  9  1  0  0  0  0
  5 24  1  0  0  0  0
  6 25  1  0  0  0  0
  6 26  1  0  0  0  0
  7 11  1  0  0  0  0
  7 28  1  0  0  0  0
  7 29  1  0  0  0  0
  8 30  1  0  0  0  0
  9 10  2  0  0  0  0
  9 21  1  0  0  0  0
 10 19  1  0  0  0  0
 11 12  1  0  0  0  0
 11 31  1  0  0  0  0
 11 32  1  0  0  0  0
 12 17  1  0  0  0  0
 12 33  1  0  0  0  0
 13 14  1  0  0  0  0
 13 34  1  0  0  0  0
 13 35  1  0  0  0  0
 14 36  1  0  0  0  0
 14 37  1  0  0  0  0
 14 38  1  0  0  0  0
 15 16  1  0  0  0  0
 15 39  1  0  0  0  0
 15 40  1  0  0  0  0
 16 41  1  0  0  0  0
 16 42  1  0  0  0  0
 16 43  1  0  0  0  0
 17 18  1  0  0  0  0
 17 44  1  0  0  0  0
 17 45  1  0  0  0  0
 18 46  1  0  0  0  0
 18 47  1  0  0  0  0
 19 23  1  0  0  0  0
M  END
> <ConfScore>
-0.66254 

$$$$
4agm


 47 48  0  0  0  0  0  0  0  0999 V2000
   90.4980   98.3810  -44.6910 N   0  3  0  1  0  4  0  0  0  0  0  0
   92.0405  102.3576  -44.2461 N   0  3  0  1  0  4  0  0  0  0  0  0
   86.2561   96.3317  -44.6735 C   0  0  0  1  0  3  0  0  0  0  0  0
   88.6574   96.7142  -44.6303 C   0  0  0  1  0  3  0  0  0  0  0  0
   86.2626   96.0039  -43.3115 C   0  0  0  1  0  3  0  0  0  0  0  0
   89.9050   97.1660  -45.3350 C   0  0  0  1  0  4  0  0  0  0  0  0
   89.5430   99.5450  -44.7170 C   0  0  0  1  0  4  0  0  0  0  0  0
   87.4445   96.6857  -45.3304 C   0  0  0  1  0  3  0  0  0  0  0  0
   87.4892   96.0353  -42.6281 C   0  0  0  1  0  3  0  0  0  0  0  0
   88.7022   96.3877  -43.2492 C   0  0  0  1  0  3  0  0  0  0  0  0
   90.1750  100.7310  -44.0050 C   0  0  0  1  0  4  0  0  0  0  0  0
   91.4300  101.0810  -44.8020 C   0  0  0  1  0  4  0  0  0  0  0  0
   91.0627  103.5137  -44.3648 C   0  0  0  1  0  4  0  0  0  0  0  0
   89.7743  103.2897  -43.5920 C   0  0  0  1  0  4  0  0  0  0  0  0
   93.3664  102.6994  -44.8897 C   0  0  0  1  0  4  0  0  0  0  0  0
   93.2814  102.8364  -46.4040 C   0  0  0  1  0  4  0  0  0  0  0  0
   92.4510   99.9400  -44.6950 C   0  0  0  1  0  4  0  0  0  0  0  0
   91.8210   98.7070  -45.3220 C   0  0  0  1  0  4  0  0  0  0  0  0
   89.8775   96.4144  -42.5500 O   0  0  0  1  0  2  0  0  0  0  0  0
   84.4349   96.2925  -45.7517 I   0  0  0  1  0  1  0  0  0  0  0  0
   87.5148   95.5296  -40.5702 I   0  0  0  1  0  1  0  0  0  0  0  0
   90.6654   98.1803  -43.7171 H   0  0  0  1  0  1  0  0  0  0  0  0
   90.5161   96.9313  -43.0271 H   0  0  0  1  0  1  0  0  0  0  0  0
   85.3464   95.7336  -42.7994 H   0  0  0  1  0  1  0  0  0  0  0  0
   90.6449   96.3510  -45.3073 H   0  0  0  1  0  1  0  0  0  0  0  0
   89.6576   97.4021  -46.3807 H   0  0  0  1  0  1  0  0  0  0  0  0
   92.2147  102.2040  -43.2644 H   0  0  0  1  0  1  0  0  0  0  0  0
   88.6095   99.2654  -44.2068 H   0  0  0  1  0  1  0  0  0  0  0  0
   89.3242   99.8170  -45.7598 H   0  0  0  1  0  1  0  0  0  0  0  0
   87.4239   96.9383  -46.3846 H   0  0  0  1  0  1  0  0  0  0  0  0
   90.4413  100.4594  -42.9731 H   0  0  0  1  0  1  0  0  0  0  0  0
   89.4801  101.5838  -43.9926 H   0  0  0  1  0  1  0  0  0  0  0  0
   91.1614  101.2320  -45.8572 H   0  0  0  1  0  1  0  0  0  0  0  0
   90.8127  103.6543  -45.4275 H   0  0  0  1  0  1  0  0  0  0  0  0
   91.5472  104.4228  -43.9802 H   0  0  0  1  0  1  0  0  0  0  0  0
   90.0073  103.1405  -42.5269 H   0  0  0  1  0  1  0  0  0  0  0  0
   89.2603  102.3994  -43.9837 H   0  0  0  1  0  1  0  0  0  0  0  0
   89.1216  104.1687  -43.7044 H   0  0  0  1  0  1  0  0  0  0  0  0
   94.0860  101.9028  -44.6510 H   0  0  0  1  0  1  0  0  0  0  0  0
   93.7220  103.6529  -44.4716 H   0  0  0  1  0  1  0  0  0  0  0  0
   94.2700  103.1030  -46.8049 H   0  0  0  1  0  1  0  0  0  0  0  0
   92.5582  103.6249  -46.6607 H   0  0  0  1  0  1  0  0  0  0  0  0
   92.9537  101.8824  -46.8421 H   0  0  0  1  0  1  0  0  0  0  0  0
   92.6876   99.7454  -43.6396 H   0  0  0  1  0  1  0  0  0  0  0  0
   93.3718  100.2075  -45.2346 H   0  0  0  1  0  1  0  0  0  0  0  0
   91.6686   98.8910  -46.3961 H   0  0  0  1  0  1  0  0  0  0  0  0
   92.4999   97.8526  -45.1887 H   0  0  0  1  0  1  0  0  0  0  0  0
  1  6  1  0  0  0  0
  1  7  1  0  0  0  0
  1 18  1  0  0  0  0
  1 22  1  0  0  0  0
  2 12  1  0  0  0  0
  2 13  1  0  0  0  0
  2 15  1  0  0  0  0
  2 27  1  0  0  0  0
  3  5  2  0  0  0  0
  3  8  1  0  0  0  0
  3 20  1  0  0  0  0
  4  6  1  0  0  0  0
  4  8  2  0  0  0  0
  4 10  1  0  0  0  0
  5  9  1  0  0  0  0
  5 24  1  0  0  0  0
  6 25  1  0  0  0  0
  6 26  1  0  0  0  0
  7 11  1  0  0  0  0
  7 28  1  0  0  0  0
  7 29  1  0  0  0  0
  8 30  1  0  0  0  0
  9 10  2  0  0  0  0
  9 21  1  0  0  0  0
 10 19  1  0  0  0  0
 11 12  1  0  0  0  0
 11 31  1  0  0  0  0
 11 32  1  0  0  0  0
 12 17  1  0  0  0  0
 12 33  1  0  0  0  0
 13 14  1  0  0  0  0
 13 34  1  0  0  0  0
 13 35  1  0  0  0  0
 14 36  1  0  0  0  0
 14 37  1  0  0  0  0
 14 38  1  0  0  0  0
 15 16  1  0  0  0  0
 15 39  1  0  0  0  0
 15 40  1  0  0  0  0
 16 41  1  0  0  0  0
 16 42  1  0  0  0  0
 16 43  1  0  0  0  0
 17 18  1  0  0  0  0
 17 44  1  0  0  0  0
 17 45  1  0  0  0  0
 18 46  1  0  0  0  0
 18 47  1  0  0  0  0
 19 23  1  0  0  0  0
M  END
> <ConfScore>
-0.657874 

$$$$
4agm


 47 48  0  0  0  0  0  0  0  0999 V2000
   90.4980   98.3810  -44.6910 N   0  3  0  1  0  4  0  0  0  0  0  0
   92.0405  102.3576  -44.2461 N   0  3  0  1  0  4  0  0  0  0  0  0
   92.5715   94.7991  -44.0176 C   0  0  0  1  0  3  0  0  0  0  0  0
   90.8112   95.9735  -45.2160 C   0  0  0  1  0  3  0  0  0  0  0  0
   92.6292   93.8208  -45.0187 C   0  0  0  1  0  3  0  0  0  0  0  0
   89.9050   97.1660  -45.3350 C   0  0  0  1  0  4  0  0  0  0  0  0
   89.5430   99.5450  -44.7170 C   0  0  0  1  0  4  0  0  0  0  0  0
   91.6697   95.8698  -44.1141 C   0  0  0  1  0  3  0  0  0  0  0  0
   91.7580   93.9408  -46.1137 C   0  0  0  1  0  3  0  0  0  0  0  0
   90.8414   95.0003  -46.2495 C   0  0  0  1  0  3  0  0  0  0  0  0
   90.1750  100.7310  -44.0050 C   0  0  0  1  0  4  0  0  0  0  0  0
   91.4300  101.0810  -44.8020 C   0  0  0  1  0  4  0  0  0  0  0  0
   91.0627  103.5137  -44.3648 C   0  0  0  1  0  4  0  0  0  0  0  0
   89.7362  103.2491  -43.6737 C   0  0  0  1  0  4  0  0  0  0  0  0
   93.3664  102.6994  -44.8897 C   0  0  0  1  0  4  0  0  0  0  0  0
   94.0132  103.9483  -44.3058 C   0  0  0  1  0  4  0  0  0  0  0  0
   92.4510   99.9400  -44.6950 C   0  0  0  1  0  4  0  0  0  0  0  0
   91.8210   98.7070  -45.3220 C   0  0  0  1  0  4  0  0  0  0  0  0
   90.0126   95.0889  -47.3340 O   0  0  0  1  0  2  0  0  0  0  0  0
   93.8580   94.6607  -42.3422 I   0  0  0  1  0  1  0  0  0  0  0  0
   91.8266   92.4608  -47.6290 I   0  0  0  1  0  1  0  0  0  0  0  0
   90.6654   98.1803  -43.7171 H   0  0  0  1  0  1  0  0  0  0  0  0
   89.1747   94.6938  -47.1232 H   0  0  0  1  0  1  0  0  0  0  0  0
   93.3269   92.9942  -44.9500 H   0  0  0  1  0  1  0  0  0  0  0  0
   89.7316   97.3768  -46.4017 H   0  0  0  1  0  1  0  0  0  0  0  0
   88.9469   96.9354  -44.8458 H   0  0  0  1  0  1  0  0  0  0  0  0
   92.2147  102.2040  -43.2644 H   0  0  0  1  0  1  0  0  0  0  0  0
   88.6095   99.2654  -44.2068 H   0  0  0  1  0  1  0  0  0  0  0  0
   89.3242   99.8170  -45.7598 H   0  0  0  1  0  1  0  0  0  0  0  0
   91.6373   96.6203  -43.3322 H   0  0  0  1  0  1  0  0  0  0  0  0
   90.4413  100.4594  -42.9731 H   0  0  0  1  0  1  0  0  0  0  0  0
   89.4801  101.5838  -43.9926 H   0  0  0  1  0  1  0  0  0  0  0  0
   91.1614  101.2320  -45.8572 H   0  0  0  1  0  1  0  0  0  0  0  0
   90.8693  103.7017  -45.4320 H   0  0  0  1  0  1  0  0  0  0  0  0
   91.5197  104.4064  -43.9136 H   0  0  0  1  0  1  0  0  0  0  0  0
   89.2523  102.3738  -44.1326 H   0  0  0  1  0  1  0  0  0  0  0  0
   89.0834  104.1281  -43.7814 H   0  0  0  1  0  1  0  0  0  0  0  0
   89.9120  103.0521  -42.6053 H   0  0  0  1  0  1  0  0  0  0  0  0
   93.2011  102.8618  -45.9647 H   0  0  0  1  0  1  0  0  0  0  0  0
   94.0525  101.8512  -44.7476 H   0  0  0  1  0  1  0  0  0  0  0  0
   94.9777  104.1289  -44.8021 H   0  0  0  1  0  1  0  0  0  0  0  0
   94.1781  103.8057  -43.2273 H   0  0  0  1  0  1  0  0  0  0  0  0
   93.3525  104.8132  -44.4638 H   0  0  0  1  0  1  0  0  0  0  0  0
   92.6876   99.7454  -43.6396 H   0  0  0  1  0  1  0  0  0  0  0  0
   93.3718  100.2075  -45.2346 H   0  0  0  1  0  1  0  0  0  0  0  0
   91.6686   98.8910  -46.3961 H   0  0  0  1  0  1  0  0  0  0  0  0
   92.4999   97.8526  -45.1887 H   0  0  0  1  0  1  0  0  0  0  0  0
  1  6  1  0  0  0  0
  1  7  1  0  0  0  0
  1 18  1  0  0  0  0
  1 22  1  0  0  0  0
  2 12  1  0  0  0  0
  2 13  1  0  0  0  0
  2 15  1  0  0  0  0
  2 27  1  0  0  0  0
  3  5  2  0  0  0  0
  3  8  1  0  0  0  0
  3 20  1  0  0  0  0
  4  6  1  0  0  0  0
  4  8  2  0  0  0  0
  4 10  1  0  0  0  0
  5  9  1  0  0  0  0
  5 24  1  0  0  0  0
  6 25  1  0  0  0  0
  6 26  1  0  0  0  0
  7 11  1  0  0  0  0
  7 28  1  0  0  0  0
  7 29  1  0  0  0  0
  8 30  1  0  0  0  0
  9 10  2  0  0  0  0
  9 21  1  0  0  0  0
 10 19  1  0  0  0  0
 11 12  1  0  0  0  0
 11 31  1  0  0  0  0
 11 32  1  0  0  0  0
 12 17  1  0  0  0  0
 12 33  1  0  0  0  0
 13 14  1  0  0  0  0
 13 34  1  0  0  0  0
 13 35  1  0  0  0  0
 14 36  1  0  0  0  0
 14 37  1  0  0  0  0
 14 38  1  0  0  0  0
 15 16  1  0  0  0  0
 15 39  1  0  0  0  0
 15 40  1  0  0  0  0
 16 41  1  0  0  0  0
 16 42  1  0  0  0  0
 16 43  1  0  0  0  0
 17 18  1  0  0  0  0
 17 44  1  0  0  0  0
 17 45  1  0  0  0  0
 18 46  1  0  0  0  0
 18 47  1  0  0  0  0
 19 23  1  0  0  0  0
M  END
> <ConfScore>
-0.65616 

$$$$
4agm


 47 48  0  0  0  0  0  0  0  0999 V2000
   90.4980   98.3810  -44.6910 N   0  3  0  1  0  4  0  0  0  0  0  0
   92.0405  102.3576  -44.2461 N   0  3  0  1  0  4  0  0  0  0  0  0
   86.2438   96.8486  -44.3640 C   0  0  0  1  0  3  0  0  0  0  0  0
   88.6574   96.7142  -44.6303 C   0  0  0  1  0  3  0  0  0  0  0  0
   86.2985   96.0010  -43.2499 C   0  0  0  1  0  3  0  0  0  0  0  0
   89.9050   97.1660  -45.3350 C   0  0  0  1  0  4  0  0  0  0  0  0
   89.5430   99.5450  -44.7170 C   0  0  0  1  0  4  0  0  0  0  0  0
   87.4146   97.2049  -45.0506 C   0  0  0  1  0  3  0  0  0  0  0  0
   87.5536   95.5171  -42.8462 C   0  0  0  1  0  3  0  0  0  0  0  0
   88.7511   95.8527  -43.5056 C   0  0  0  1  0  3  0  0  0  0  0  0
   90.1750  100.7310  -44.0050 C   0  0  0  1  0  4  0  0  0  0  0  0
   91.4300  101.0810  -44.8020 C   0  0  0  1  0  4  0  0  0  0  0  0
   91.0627  103.5137  -44.3648 C   0  0  0  1  0  4  0  0  0  0  0  0
   91.6092  104.8190  -43.8127 C   0  0  0  1  0  4  0  0  0  0  0  0
   93.3664  102.6994  -44.8897 C   0  0  0  1  0  4  0  0  0  0  0  0
   93.2670  102.9098  -46.3946 C   0  0  0  1  0  4  0  0  0  0  0  0
   92.4510   99.9400  -44.6950 C   0  0  0  1  0  4  0  0  0  0  0  0
   91.8210   98.7070  -45.3220 C   0  0  0  1  0  4  0  0  0  0  0  0
   89.9572   95.3680  -43.0797 O   0  0  0  1  0  2  0  0  0  0  0  0
   84.3759   97.5995  -45.0182 I   0  0  0  1  0  1  0  0  0  0  0  0
   87.6489   94.2241  -41.1698 I   0  0  0  1  0  1  0  0  0  0  0  0
   90.6654   98.1803  -43.7171 H   0  0  0  1  0  1  0  0  0  0  0  0
   90.1735   94.5848  -43.5720 H   0  0  0  1  0  1  0  0  0  0  0  0
   85.3971   95.7263  -42.7143 H   0  0  0  1  0  1  0  0  0  0  0  0
   90.6449   96.3510  -45.3073 H   0  0  0  1  0  1  0  0  0  0  0  0
   89.6576   97.4021  -46.3807 H   0  0  0  1  0  1  0  0  0  0  0  0
   92.2147  102.2040  -43.2644 H   0  0  0  1  0  1  0  0  0  0  0  0
   88.6095   99.2654  -44.2068 H   0  0  0  1  0  1  0  0  0  0  0  0
   89.3242   99.8170  -45.7598 H   0  0  0  1  0  1  0  0  0  0  0  0
   87.3569   97.8629  -45.9105 H   0  0  0  1  0  1  0  0  0  0  0  0
   90.4413  100.4594  -42.9731 H   0  0  0  1  0  1  0  0  0  0  0  0
   89.4801  101.5838  -43.9926 H   0  0  0  1  0  1  0  0  0  0  0  0
   91.1614  101.2320  -45.8572 H   0  0  0  1  0  1  0  0  0  0  0  0
   90.1464  103.2567  -43.8116 H   0  0  0  1  0  1  0  0  0  0  0  0
   90.8193  103.6585  -45.4274 H   0  0  0  1  0  1  0  0  0  0  0  0
   92.5305  105.0873  -44.3513 H   0  0  0  1  0  1  0  0  0  0  0  0
   91.8310  104.7013  -42.7416 H   0  0  0  1  0  1  0  0  0  0  0  0
   90.8616  105.6155  -43.9466 H   0  0  0  1  0  1  0  0  0  0  0  0
   94.0701  101.8763  -44.6979 H   0  0  0  1  0  1  0  0  0  0  0  0
   93.7489  103.6238  -44.4318 H   0  0  0  1  0  1  0  0  0  0  0  0
   92.8949  101.9908  -46.8704 H   0  0  0  1  0  1  0  0  0  0  0  0
   94.2616  103.1529  -46.7973 H   0  0  0  1  0  1  0  0  0  0  0  0
   92.5743  103.7375  -46.6056 H   0  0  0  1  0  1  0  0  0  0  0  0
   92.6876   99.7454  -43.6396 H   0  0  0  1  0  1  0  0  0  0  0  0
   93.3718  100.2075  -45.2346 H   0  0  0  1  0  1  0  0  0  0  0  0
   91.6686   98.8910  -46.3961 H   0  0  0  1  0  1  0  0  0  0  0  0
   92.4999   97.8526  -45.1887 H   0  0  0  1  0  1  0  0  0  0  0  0
  1  6  1  0  0  0  0
  1  7  1  0  0  0  0
  1 18  1  0  0  0  0
  1 22  1  0  0  0  0
  2 12  1  0  0  0  0
  2 13  1  0  0  0  0
  2 15  1  0  0  0  0
  2 27  1  0  0  0  0
  3  5  2  0  0  0  0
  3  8  1  0  0  0  0
  3 20  1  0  0  0  0
  4  6  1  0  0  0  0
  4  8  2  0  0  0  0
  4 10  1  0  0  0  0
  5  9  1  0  0  0  0
  5 24  1  0  0  0  0
  6 25  1  0  0  0  0
  6 26  1  0  0  0  0
  7 11  1  0  0  0  0
  7 28  1  0  0  0  0
  7 29  1  0  0  0  0
  8 30  1  0  0  0  0
  9 10  2  0  0  0  0
  9 21  1  0  0  0  0
 10 19  1  0  0  0  0
 11 12  1  0  0  0  0
 11 31  1  0  0  0  0
 11 32  1  0  0  0  0
 12 17  1  0  0  0  0
 12 33  1  0  0  0  0
 13 14  1  0  0  0  0
 13 34  1  0  0  0  0
 13 35  1  0  0  0  0
 14 36  1  0  0  0  0
 14 37  1  0  0  0  0
 14 38  1  0  0  0  0
 15 16  1  0  0  0  0
 15 39  1  0  0  0  0
 15 40  1  0  0  0  0
 16 41  1  0  0  0  0
 16 42  1  0  0  0  0
 16 43  1  0  0  0  0
 17 18  1  0  0  0  0
 17 44  1  0  0  0  0
 17 45  1  0  0  0  0
 18 46  1  0  0  0  0
 18 47  1  0  0  0  0
 19 23  1  0  0  0  0
M  END
> <ConfScore>
-0.655621 

$$$$
4agm


 47 48  0  0  0  0  0  0  0  0999 V2000
   90.4980   98.3810  -44.6910 N   0  3  0  1  0  4  0  0  0  0  0  0
   92.0405  102.3576  -44.2461 N   0  3  0  1  0  4  0  0  0  0  0  0
   90.4351   97.9904  -49.0075 C   0  0  0  1  0  3  0  0  0  0  0  0
   89.6262   97.3885  -46.7945 C   0  0  0  1  0  3  0  0  0  0  0  0
   89.1312   97.9500  -49.5181 C   0  0  0  1  0  3  0  0  0  0  0  0
   89.9050   97.1660  -45.3350 C   0  0  0  1  0  4  0  0  0  0  0  0
   89.5430   99.5450  -44.7170 C   0  0  0  1  0  4  0  0  0  0  0  0
   90.6831   97.7126  -47.6546 C   0  0  0  1  0  3  0  0  0  0  0  0
   88.0856   97.6199  -48.6404 C   0  0  0  1  0  3  0  0  0  0  0  0
   88.2917   97.3377  -47.2769 C   0  0  0  1  0  3  0  0  0  0  0  0
   90.1750  100.7310  -44.0050 C   0  0  0  1  0  4  0  0  0  0  0  0
   91.4300  101.0810  -44.8020 C   0  0  0  1  0  4  0  0  0  0  0  0
   91.0368  103.4963  -44.2965 C   0  0  0  1  0  4  0  0  0  0  0  0
   89.7280  103.1721  -43.5970 C   0  0  0  1  0  4  0  0  0  0  0  0
   93.3298  102.7388  -44.9400 C   0  0  0  1  0  4  0  0  0  0  0  0
   93.1382  103.1000  -46.4070 C   0  0  0  1  0  4  0  0  0  0  0  0
   92.4510   99.9400  -44.6950 C   0  0  0  1  0  4  0  0  0  0  0  0
   91.8210   98.7070  -45.3220 C   0  0  0  1  0  4  0  0  0  0  0  0
   87.2479   97.0267  -46.4495 O   0  0  0  1  0  2  0  0  0  0  0  0
   92.0478   98.4753  -50.2901 I   0  0  0  1  0  1  0  0  0  0  0  0
   86.1098   97.5433  -49.4029 I   0  0  0  1  0  1  0  0  0  0  0  0
   90.6654   98.1803  -43.7171 H   0  0  0  1  0  1  0  0  0  0  0  0
   87.1587   96.0824  -46.3962 H   0  0  0  1  0  1  0  0  0  0  0  0
   88.9347   98.1676  -50.5616 H   0  0  0  1  0  1  0  0  0  0  0  0
   88.9609   96.9176  -44.8257 H   0  0  0  1  0  1  0  0  0  0  0  0
   90.6101   96.3278  -45.2309 H   0  0  0  1  0  1  0  0  0  0  0  0
   92.2611  102.1871  -43.2766 H   0  0  0  1  0  1  0  0  0  0  0  0
   88.6095   99.2654  -44.2068 H   0  0  0  1  0  1  0  0  0  0  0  0
   89.3242   99.8170  -45.7598 H   0  0  0  1  0  1  0  0  0  0  0  0
   91.6975   97.7490  -47.2732 H   0  0  0  1  0  1  0  0  0  0  0  0
   90.4413  100.4594  -42.9731 H   0  0  0  1  0  1  0  0  0  0  0  0
   89.4801  101.5838  -43.9926 H   0  0  0  1  0  1  0  0  0  0  0  0
   91.1614  101.2320  -45.8572 H   0  0  0  1  0  1  0  0  0  0  0  0
   90.8214  103.7280  -45.3508 H   0  0  0  1  0  1  0  0  0  0  0  0
   91.4825  104.3775  -43.8126 H   0  0  0  1  0  1  0  0  0  0  0  0
   89.0492  104.0349  -43.6717 H   0  0  0  1  0  1  0  0  0  0  0  0
   89.9226  102.9485  -42.5375 H   0  0  0  1  0  1  0  0  0  0  0  0
   89.2627  102.2975  -44.0765 H   0  0  0  1  0  1  0  0  0  0  0  0
   94.0245  101.8887  -44.8775 H   0  0  0  1  0  1  0  0  0  0  0  0
   93.7630  103.6062  -44.4199 H   0  0  0  1  0  1  0  0  0  0  0  0
   94.1061  103.3842  -46.8449 H   0  0  0  1  0  1  0  0  0  0  0  0
   92.4381  103.9449  -46.4881 H   0  0  0  1  0  1  0  0  0  0  0  0
   92.7312  102.2340  -46.9491 H   0  0  0  1  0  1  0  0  0  0  0  0
   92.6876   99.7454  -43.6396 H   0  0  0  1  0  1  0  0  0  0  0  0
   93.3718  100.2075  -45.2346 H   0  0  0  1  0  1  0  0  0  0  0  0
   91.6686   98.8910  -46.3961 H   0  0  0  1  0  1  0  0  0  0  0  0
   92.4999   97.8526  -45.1887 H   0  0  0  1  0  1  0  0  0  0  0  0
  1  6  1  0  0  0  0
  1  7  1  0  0  0  0
  1 18  1  0  0  0  0
  1 22  1  0  0  0  0
  2 12  1  0  0  0  0
  2 13  1  0  0  0  0
  2 15  1  0  0  0  0
  2 27  1  0  0  0  0
  3  5  2  0  0  0  0
  3  8  1  0  0  0  0
  3 20  1  0  0  0  0
  4  6  1  0  0  0  0
  4  8  2  0  0  0  0
  4 10  1  0  0  0  0
  5  9  1  0  0  0  0
  5 24  1  0  0  0  0
  6 25  1  0  0  0  0
  6 26  1  0  0  0  0
  7 11  1  0  0  0  0
  7 28  1  0  0  0  0
  7 29  1  0  0  0  0
  8 30  1  0  0  0  0
  9 10  2  0  0  0  0
  9 21  1  0  0  0  0
 10 19  1  0  0  0  0
 11 12  1  0  0  0  0
 11 31  1  0  0  0  0
 11 32  1  0  0  0  0
 12 17  1  0  0  0  0
 12 33  1  0  0  0  0
 13 14  1  0  0  0  0
 13 34  1  0  0  0  0
 13 35  1  0  0  0  0
 14 36  1  0  0  0  0
 14 37  1  0  0  0  0
 14 38  1  0  0  0  0
 15 16  1  0  0  0  0
 15 39  1  0  0  0  0
 15 40  1  0  0  0  0
 16 41  1  0  0  0  0
 16 42  1  0  0  0  0
 16 43  1  0  0  0  0
 17 18  1  0  0  0  0
 17 44  1  0  0  0  0
 17 45  1  0  0  0  0
 18 46  1  0  0  0  0
 18 47  1  0  0  0  0
 19 23  1  0  0  0  0
M  END
> <ConfScore>
-0.652539 

$$$$
4agm


 47 48  0  0  0  0  0  0  0  0999 V2000
   90.4980   98.3810  -44.6910 N   0  3  0  1  0  4  0  0  0  0  0  0
   92.0405  102.3576  -44.2461 N   0  3  0  1  0  4  0  0  0  0  0  0
   90.4351   97.9904  -49.0075 C   0  0  0  1  0  3  0  0  0  0  0  0
   89.6262   97.3885  -46.7945 C   0  0  0  1  0  3  0  0  0  0  0  0
   89.1312   97.9500  -49.5181 C   0  0  0  1  0  3  0  0  0  0  0  0
   89.9050   97.1660  -45.3350 C   0  0  0  1  0  4  0  0  0  0  0  0
   89.5430   99.5450  -44.7170 C   0  0  0  1  0  4  0  0  0  0  0  0
   90.6831   97.7126  -47.6546 C   0  0  0  1  0  3  0  0  0  0  0  0
   88.0856   97.6199  -48.6404 C   0  0  0  1  0  3  0  0  0  0  0  0
   88.2917   97.3377  -47.2769 C   0  0  0  1  0  3  0  0  0  0  0  0
   90.1750  100.7310  -44.0050 C   0  0  0  1  0  4  0  0  0  0  0  0
   91.4300  101.0810  -44.8020 C   0  0  0  1  0  4  0  0  0  0  0  0
   91.0368  103.4963  -44.2965 C   0  0  0  1  0  4  0  0  0  0  0  0
   89.7280  103.1721  -43.5970 C   0  0  0  1  0  4  0  0  0  0  0  0
   93.3298  102.7388  -44.9400 C   0  0  0  1  0  4  0  0  0  0  0  0
   93.1382  103.1000  -46.4070 C   0  0  0  1  0  4  0  0  0  0  0  0
   92.4510   99.9400  -44.6950 C   0  0  0  1  0  4  0  0  0  0  0  0
   91.8210   98.7070  -45.3220 C   0  0  0  1  0  4  0  0  0  0  0  0
   87.2479   97.0267  -46.4495 O   0  0  0  1  0  2  0  0  0  0  0  0
   92.0478   98.4753  -50.2901 I   0  0  0  1  0  1  0  0  0  0  0  0
   86.1098   97.5433  -49.4029 I   0  0  0  1  0  1  0  0  0  0  0  0
   90.6654   98.1803  -43.7171 H   0  0  0  1  0  1  0  0  0  0  0  0
   87.1587   96.0824  -46.3962 H   0  0  0  1  0  1  0  0  0  0  0  0
   88.9347   98.1676  -50.5616 H   0  0  0  1  0  1  0  0  0  0  0  0
   88.9609   96.9176  -44.8257 H   0  0  0  1  0  1  0  0  0  0  0  0
   90.6101   96.3278  -45.2309 H   0  0  0  1  0  1  0  0  0  0  0  0
   92.2611  102.1871  -43.2766 H   0  0  0  1  0  1  0  0  0  0  0  0
   88.6095   99.2654  -44.2068 H   0  0  0  1  0  1  0  0  0  0  0  0
   89.3242   99.8170  -45.7598 H   0  0  0  1  0  1  0  0  0  0  0  0
   91.6975   97.7490  -47.2732 H   0  0  0  1  0  1  0  0  0  0  0  0
   90.4413  100.4594  -42.9731 H   0  0  0  1  0  1  0  0  0  0  0  0
   89.4801  101.5838  -43.9926 H   0  0  0  1  0  1  0  0  0  0  0  0
   91.1614  101.2320  -45.8572 H   0  0  0  1  0  1  0  0  0  0  0  0
   90.8214  103.7280  -45.3508 H   0  0  0  1  0  1  0  0  0  0  0  0
   91.4825  104.3775  -43.8126 H   0  0  0  1  0  1  0  0  0  0  0  0
   89.0492  104.0349  -43.6717 H   0  0  0  1  0  1  0  0  0  0  0  0
   89.9226  102.9485  -42.5375 H   0  0  0  1  0  1  0  0  0  0  0  0
   89.2627  102.2975  -44.0765 H   0  0  0  1  0  1  0  0  0  0  0  0
   94.0245  101.8887  -44.8775 H   0  0  0  1  0  1  0  0  0  0  0  0
   93.7630  103.6062  -44.4199 H   0  0  0  1  0  1  0  0  0  0  0  0
   92.4379  103.9439  -46.4892 H   0  0  0  1  0  1  0  0  0  0  0  0
   92.7306  102.2328  -46.9478 H   0  0  0  1  0  1  0  0  0  0  0  0
   94.1060  103.3832  -46.8458 H   0  0  0  1  0  1  0  0  0  0  0  0
   92.6876   99.7454  -43.6396 H   0  0  0  1  0  1  0  0  0  0  0  0
   93.3718  100.2075  -45.2346 H   0  0  0  1  0  1  0  0  0  0  0  0
   91.6686   98.8910  -46.3961 H   0  0  0  1  0  1  0  0  0  0  0  0
   92.4999   97.8526  -45.1887 H   0  0  0  1  0  1  0  0  0  0  0  0
  1  6  1  0  0  0  0
  1  7  1  0  0  0  0
  1 18  1  0  0  0  0
  1 22  1  0  0  0  0
  2 12  1  0  0  0  0
  2 13  1  0  0  0  0
  2 15  1  0  0  0  0
  2 27  1  0  0  0  0
  3  5  2  0  0  0  0
  3  8  1  0  0  0  0
  3 20  1  0  0  0  0
  4  6  1  0  0  0  0
  4  8  2  0  0  0  0
  4 10  1  0  0  0  0
  5  9  1  0  0  0  0
  5 24  1  0  0  0  0
  6 25  1  0  0  0  0
  6 26  1  0  0  0  0
  7 11  1  0  0  0  0
  7 28  1  0  0  0  0
  7 29  1  0  0  0  0
  8 30  1  0  0  0  0
  9 10  2  0  0  0  0
  9 21  1  0  0  0  0
 10 19  1  0  0  0  0
 11 12  1  0  0  0  0
 11 31  1  0  0  0  0
 11 32  1  0  0  0  0
 12 17  1  0  0  0  0
 12 33  1  0  0  0  0
 13 14  1  0  0  0  0
 13 34  1  0  0  0  0
 13 35  1  0  0  0  0
 14 36  1  0  0  0  0
 14 37  1  0  0  0  0
 14 38  1  0  0  0  0
 15 16  1  0  0  0  0
 15 39  1  0  0  0  0
 15 40  1  0  0  0  0
 16 41  1  0  0  0  0
 16 42  1  0  0  0  0
 16 43  1  0  0  0  0
 17 18  1  0  0  0  0
 17 44  1  0  0  0  0
 17 45  1  0  0  0  0
 18 46  1  0  0  0  0
 18 47  1  0  0  0  0
 19 23  1  0  0  0  0
M  END
> <ConfScore>
-0.652539 

$$$$
4agm


 47 48  0  0  0  0  0  0  0  0999 V2000
   90.4980   98.3810  -44.6910 N   0  3  0  1  0  4  0  0  0  0  0  0
   92.0405  102.3576  -44.2461 N   0  3  0  1  0  4  0  0  0  0  0  0
   90.4351   97.9904  -49.0075 C   0  0  0  1  0  3  0  0  0  0  0  0
   89.6262   97.3885  -46.7945 C   0  0  0  1  0  3  0  0  0  0  0  0
   89.1312   97.9500  -49.5181 C   0  0  0  1  0  3  0  0  0  0  0  0
   89.9050   97.1660  -45.3350 C   0  0  0  1  0  4  0  0  0  0  0  0
   89.5430   99.5450  -44.7170 C   0  0  0  1  0  4  0  0  0  0  0  0
   90.6831   97.7126  -47.6546 C   0  0  0  1  0  3  0  0  0  0  0  0
   88.0856   97.6199  -48.6404 C   0  0  0  1  0  3  0  0  0  0  0  0
   88.2917   97.3377  -47.2769 C   0  0  0  1  0  3  0  0  0  0  0  0
   90.1750  100.7310  -44.0050 C   0  0  0  1  0  4  0  0  0  0  0  0
   91.4300  101.0810  -44.8020 C   0  0  0  1  0  4  0  0  0  0  0  0
   91.0368  103.4963  -44.2965 C   0  0  0  1  0  4  0  0  0  0  0  0
   89.7280  103.1721  -43.5970 C   0  0  0  1  0  4  0  0  0  0  0  0
   93.3298  102.7388  -44.9400 C   0  0  0  1  0  4  0  0  0  0  0  0
   93.1382  103.1000  -46.4070 C   0  0  0  1  0  4  0  0  0  0  0  0
   92.4510   99.9400  -44.6950 C   0  0  0  1  0  4  0  0  0  0  0  0
   91.8210   98.7070  -45.3220 C   0  0  0  1  0  4  0  0  0  0  0  0
   87.2479   97.0267  -46.4495 O   0  0  0  1  0  2  0  0  0  0  0  0
   92.0478   98.4753  -50.2901 I   0  0  0  1  0  1  0  0  0  0  0  0
   86.1098   97.5433  -49.4029 I   0  0  0  1  0  1  0  0  0  0  0  0
   90.6654   98.1803  -43.7171 H   0  0  0  1  0  1  0  0  0  0  0  0
   87.1587   96.0824  -46.3962 H   0  0  0  1  0  1  0  0  0  0  0  0
   88.9347   98.1676  -50.5616 H   0  0  0  1  0  1  0  0  0  0  0  0
   88.9609   96.9176  -44.8257 H   0  0  0  1  0  1  0  0  0  0  0  0
   90.6101   96.3278  -45.2309 H   0  0  0  1  0  1  0  0  0  0  0  0
   92.2611  102.1871  -43.2766 H   0  0  0  1  0  1  0  0  0  0  0  0
   88.6095   99.2654  -44.2068 H   0  0  0  1  0  1  0  0  0  0  0  0
   89.3242   99.8170  -45.7598 H   0  0  0  1  0  1  0  0  0  0  0  0
   91.6975   97.7490  -47.2732 H   0  0  0  1  0  1  0  0  0  0  0  0
   90.4413  100.4594  -42.9731 H   0  0  0  1  0  1  0  0  0  0  0  0
   89.4801  101.5838  -43.9926 H   0  0  0  1  0  1  0  0  0  0  0  0
   91.1614  101.2320  -45.8572 H   0  0  0  1  0  1  0  0  0  0  0  0
   90.8214  103.7280  -45.3508 H   0  0  0  1  0  1  0  0  0  0  0  0
   91.4825  104.3775  -43.8126 H   0  0  0  1  0  1  0  0  0  0  0  0
   89.9264  102.9323  -42.5416 H   0  0  0  1  0  1  0  0  0  0  0  0
   89.2531  102.3089  -44.0867 H   0  0  0  1  0  1  0  0  0  0  0  0
   89.0559  104.0416  -43.6550 H   0  0  0  1  0  1  0  0  0  0  0  0
   94.0245  101.8887  -44.8775 H   0  0  0  1  0  1  0  0  0  0  0  0
   93.7630  103.6062  -44.4199 H   0  0  0  1  0  1  0  0  0  0  0  0
   92.4379  103.9439  -46.4892 H   0  0  0  1  0  1  0  0  0  0  0  0
   92.7306  102.2328  -46.9478 H   0  0  0  1  0  1  0  0  0  0  0  0
   94.1060  103.3832  -46.8458 H   0  0  0  1  0  1  0  0  0  0  0  0
   92.6876   99.7454  -43.6396 H   0  0  0  1  0  1  0  0  0  0  0  0
   93.3718  100.2075  -45.2346 H   0  0  0  1  0  1  0  0  0  0  0  0
   91.6686   98.8910  -46.3961 H   0  0  0  1  0  1  0  0  0  0  0  0
   92.4999   97.8526  -45.1887 H   0  0  0  1  0  1  0  0  0  0  0  0
  1  6  1  0  0  0  0
  1  7  1  0  0  0  0
  1 18  1  0  0  0  0
  1 22  1  0  0  0  0
  2 12  1  0  0  0  0
  2 13  1  0  0  0  0
  2 15  1  0  0  0  0
  2 27  1  0  0  0  0
  3  5  2  0  0  0  0
  3  8  1  0  0  0  0
  3 20  1  0  0  0  0
  4  6  1  0  0  0  0
  4  8  2  0  0  0  0
  4 10  1  0  0  0  0
  5  9  1  0  0  0  0
  5 24  1  0  0  0  0
  6 25  1  0  0  0  0
  6 26  1  0  0  0  0
  7 11  1  0  0  0  0
  7 28  1  0  0  0  0
  7 29  1  0  0  0  0
  8 30  1  0  0  0  0
  9 10  2  0  0  0  0
  9 21  1  0  0  0  0
 10 19  1  0  0  0  0
 11 12  1  0  0  0  0
 11 31  1  0  0  0  0
 11 32  1  0  0  0  0
 12 17  1  0  0  0  0
 12 33  1  0  0  0  0
 13 14  1  0  0  0  0
 13 34  1  0  0  0  0
 13 35  1  0  0  0  0
 14 36  1  0  0  0  0
 14 37  1  0  0  0  0
 14 38  1  0  0  0  0
 15 16  1  0  0  0  0
 15 39  1  0  0  0  0
 15 40  1  0  0  0  0
 16 41  1  0  0  0  0
 16 42  1  0  0  0  0
 16 43  1  0  0  0  0
 17 18  1  0  0  0  0
 17 44  1  0  0  0  0
 17 45  1  0  0  0  0
 18 46  1  0  0  0  0
 18 47  1  0  0  0  0
 19 23  1  0  0  0  0
M  END
> <ConfScore>
-0.652539 

$$$$
4agm


 47 48  0  0  0  0  0  0  0  0999 V2000
  123.9590  107.7800  -44.6740 N   0  3  0  1  0  4  0  0  0  0  0  0
  125.6880  111.7520  -44.3740 N   0  3  0  1  0  4  0  0  0  0  0  0
  124.2732  102.9329  -45.1298 C   0  0  0  1  0  3  0  0  0  0  0  0
  123.8338  105.3020  -44.8040 C   0  0  0  1  0  3  0  0  0  0  0  0
  124.6708  102.8008  -43.7934 C   0  0  0  1  0  3  0  0  0  0  0  0
  123.3160  106.6050  -45.3430 C   0  0  0  1  0  4  0  0  0  0  0  0
  123.0630  108.9900  -44.6940 C   0  0  0  1  0  4  0  0  0  0  0  0
  123.8561  104.1745  -45.6340 C   0  0  0  1  0  3  0  0  0  0  0  0
  124.6444  103.9443  -42.9785 C   0  0  0  1  0  3  0  0  0  0  0  0
  124.2308  105.2061  -43.4439 C   0  0  0  1  0  3  0  0  0  0  0  0
  123.7430  110.1330  -43.9560 C   0  0  0  1  0  4  0  0  0  0  0  0
  125.0240  110.4320  -44.7320 C   0  0  0  1  0  4  0  0  0  0  0  0
  126.1114  111.7592  -42.9155 C   0  0  0  1  0  4  0  0  0  0  0  0
  126.8050  113.0451  -42.4998 C   0  0  0  1  0  4  0  0  0  0  0  0
  124.8188  112.9486  -44.6931 C   0  0  0  1  0  4  0  0  0  0  0  0
  125.4928  114.2793  -44.3866 C   0  0  0  1  0  4  0  0  0  0  0  0
  125.9860  109.2400  -44.6290 C   0  0  0  1  0  4  0  0  0  0  0  0
  125.3050  108.0490  -45.2830 C   0  0  0  1  0  4  0  0  0  0  0  0
  124.2362  106.3291  -42.6630 O   0  0  0  1  0  2  0  0  0  0  0  0
  124.3019  101.2733  -46.4435 I   0  0  0  1  0  1  0  0  0  0  0  0
  125.2110  103.7485  -40.9458 I   0  0  0  1  0  1  0  0  0  0  0  0
  124.1080  107.5360  -43.7070 H   0  0  0  1  0  1  0  0  0  0  0  0
  124.5232  106.1018  -41.7863 H   0  0  0  1  0  1  0  0  0  0  0  0
  124.9909  101.8432  -43.3994 H   0  0  0  1  0  1  0  0  0  0  0  0
  122.2284  106.6519  -45.1775 H   0  0  0  1  0  1  0  0  0  0  0  0
  123.5245  106.6521  -46.4223 H   0  0  0  1  0  1  0  0  0  0  0  0
  126.5227  111.8298  -44.9351 H   0  0  0  1  0  1  0  0  0  0  0  0
  122.1100  108.7500  -44.2000 H   0  0  0  1  0  1  0  0  0  0  0  0
  122.8710  109.2880  -45.7350 H   0  0  0  1  0  1  0  0  0  0  0  0
  123.5501  104.2609  -46.6707 H   0  0  0  1  0  1  0  0  0  0  0  0
  123.9820  109.8340  -42.9250 H   0  0  0  1  0  1  0  0  0  0  0  0
  123.0910  111.0190  -43.9380 H   0  0  0  1  0  1  0  0  0  0  0  0
  124.7340  110.5160  -45.7890 H   0  0  0  1  0  1  0  0  0  0  0  0
  126.8024  110.9192  -42.7463 H   0  0  0  1  0  1  0  0  0  0  0  0
  125.2163  111.6274  -42.2904 H   0  0  0  1  0  1  0  0  0  0  0  0
  127.0687  112.9907  -41.4329 H   0  0  0  1  0  1  0  0  0  0  0  0
  126.1306  113.8980  -42.6683 H   0  0  0  1  0  1  0  0  0  0  0  0
  127.7199  113.1781  -43.0969 H   0  0  0  1  0  1  0  0  0  0  0  0
  123.8967  112.8789  -44.0980 H   0  0  0  1  0  1  0  0  0  0  0  0
  124.5677  112.9221  -45.7639 H   0  0  0  1  0  1  0  0  0  0  0  0
  126.4231  114.3623  -44.9670 H   0  0  0  1  0  1  0  0  0  0  0  0
  125.7260  114.3333  -43.3127 H   0  0  0  1  0  1  0  0  0  0  0  0
  124.8179  115.1045  -44.6566 H   0  0  0  1  0  1  0  0  0  0  0  0
  126.1990  109.0180  -43.5740 H   0  0  0  1  0  1  0  0  0  0  0  0
  126.9260  109.4690  -45.1530 H   0  0  0  1  0  1  0  0  0  0  0  0
  125.1760  108.2560  -46.3560 H   0  0  0  1  0  1  0  0  0  0  0  0
  125.9390  107.1600  -45.1550 H   0  0  0  1  0  1  0  0  0  0  0  0
  1  6  1  0  0  0  0
  1  7  1  0  0  0  0
  1 18  1  0  0  0  0
  1 22  1  0  0  0  0
  2 12  1  0  0  0  0
  2 13  1  0  0  0  0
  2 15  1  0  0  0  0
  2 27  1  0  0  0  0
  3  5  2  0  0  0  0
  3  8  1  0  0  0  0
  3 20  1  0  0  0  0
  4  6  1  0  0  0  0
  4  8  2  0  0  0  0
  4 10  1  0  0  0  0
  5  9  1  0  0  0  0
  5 24  1  0  0  0  0
  6 25  1  0  0  0  0
  6 26  1  0  0  0  0
  7 11  1  0  0  0  0
  7 28  1  0  0  0  0
  7 29  1  0  0  0  0
  8 30  1  0  0  0  0
  9 10  2  0  0  0  0
  9 21  1  0  0  0  0
 10 19  1  0  0  0  0
 11 12  1  0  0  0  0
 11 31  1  0  0  0  0
 11 32  1  0  0  0  0
 12 17  1  0  0  0  0
 12 33  1  0  0  0  0
 13 14  1  0  0  0  0
 13 34  1  0  0  0  0
 13 35  1  0  0  0  0
 14 36  1  0  0  0  0
 14 37  1  0  0  0  0
 14 38  1  0  0  0  0
 15 16  1  0  0  0  0
 15 39  1  0  0  0  0
 15 40  1  0  0  0  0
 16 41  1  0  0  0  0
 16 42  1  0  0  0  0
 16 43  1  0  0  0  0
 17 18  1  0  0  0  0
 17 44  1  0  0  0  0
 17 45  1  0  0  0  0
 18 46  1  0  0  0  0
 18 47  1  0  0  0  0
 19 23  1  0  0  0  0
M  END
> <ConfScore>
-0.651881 

$$$$
4agm


 47 48  0  0  0  0  0  0  0  0999 V2000
  123.9590  107.7800  -44.6740 N   0  3  0  1  0  4  0  0  0  0  0  0
  125.6880  111.7520  -44.3740 N   0  3  0  1  0  4  0  0  0  0  0  0
  120.9510  104.7780  -42.9947 C   0  0  0  1  0  3  0  0  0  0  0  0
  122.0557  106.1833  -44.6428 C   0  0  0  1  0  3  0  0  0  0  0  0
  119.6976  105.2603  -43.3917 C   0  0  0  1  0  3  0  0  0  0  0  0
  123.3160  106.6050  -45.3430 C   0  0  0  1  0  4  0  0  0  0  0  0
  123.0630  108.9900  -44.6940 C   0  0  0  1  0  4  0  0  0  0  0  0
  122.1241  105.2345  -43.6154 C   0  0  0  1  0  3  0  0  0  0  0  0
  119.6509  106.2140  -44.4216 C   0  0  0  1  0  3  0  0  0  0  0  0
  120.8023  106.6955  -45.0712 C   0  0  0  1  0  3  0  0  0  0  0  0
  123.7430  110.1330  -43.9560 C   0  0  0  1  0  4  0  0  0  0  0  0
  125.0240  110.4320  -44.7320 C   0  0  0  1  0  4  0  0  0  0  0  0
  126.1114  111.7592  -42.9155 C   0  0  0  1  0  4  0  0  0  0  0  0
  124.9423  111.6470  -41.9522 C   0  0  0  1  0  4  0  0  0  0  0  0
  124.8188  112.9486  -44.6931 C   0  0  0  1  0  4  0  0  0  0  0  0
  124.4908  113.0745  -46.1749 C   0  0  0  1  0  4  0  0  0  0  0  0
  125.9860  109.2400  -44.6290 C   0  0  0  1  0  4  0  0  0  0  0  0
  125.3050  108.0490  -45.2830 C   0  0  0  1  0  4  0  0  0  0  0  0
  120.7638  107.6493  -46.0509 O   0  0  0  1  0  2  0  0  0  0  0  0
  121.1270  103.3578  -41.4347 I   0  0  0  1  0  1  0  0  0  0  0  0
  117.7572  106.9251  -45.0539 I   0  0  0  1  0  1  0  0  0  0  0  0
  124.1080  107.5360  -43.7070 H   0  0  0  1  0  1  0  0  0  0  0  0
  119.8604  107.8867  -46.2240 H   0  0  0  1  0  1  0  0  0  0  0  0
  118.7891  104.9084  -42.9168 H   0  0  0  1  0  1  0  0  0  0  0  0
  123.0726  106.8758  -46.3822 H   0  0  0  1  0  1  0  0  0  0  0  0
  124.0239  105.7628  -45.3403 H   0  0  0  1  0  1  0  0  0  0  0  0
  126.5227  111.8298  -44.9351 H   0  0  0  1  0  1  0  0  0  0  0  0
  122.1100  108.7500  -44.2000 H   0  0  0  1  0  1  0  0  0  0  0  0
  122.8710  109.2880  -45.7350 H   0  0  0  1  0  1  0  0  0  0  0  0
  123.0872  104.8509  -43.2978 H   0  0  0  1  0  1  0  0  0  0  0  0
  123.9820  109.8340  -42.9250 H   0  0  0  1  0  1  0  0  0  0  0  0
  123.0910  111.0190  -43.9380 H   0  0  0  1  0  1  0  0  0  0  0  0
  124.7340  110.5160  -45.7890 H   0  0  0  1  0  1  0  0  0  0  0  0
  126.6449  112.6997  -42.7093 H   0  0  0  1  0  1  0  0  0  0  0  0
  126.7886  110.9100  -42.7433 H   0  0  0  1  0  1  0  0  0  0  0  0
  125.3189  111.6411  -40.9182 H   0  0  0  1  0  1  0  0  0  0  0  0
  124.3924  110.7144  -42.1480 H   0  0  0  1  0  1  0  0  0  0  0  0
  124.2683  112.5058  -42.0916 H   0  0  0  1  0  1  0  0  0  0  0  0
  125.3469  113.8588  -44.3738 H   0  0  0  1  0  1  0  0  0  0  0  0
  123.8766  112.8550  -44.1330 H   0  0  0  1  0  1  0  0  0  0  0  0
  123.9697  112.1675  -46.5143 H   0  0  0  1  0  1  0  0  0  0  0  0
  125.4224  113.1966  -46.7475 H   0  0  0  1  0  1  0  0  0  0  0  0
  123.8448  113.9498  -46.3358 H   0  0  0  1  0  1  0  0  0  0  0  0
  126.1990  109.0180  -43.5740 H   0  0  0  1  0  1  0  0  0  0  0  0
  126.9260  109.4690  -45.1530 H   0  0  0  1  0  1  0  0  0  0  0  0
  125.1760  108.2560  -46.3560 H   0  0  0  1  0  1  0  0  0  0  0  0
  125.9390  107.1600  -45.1550 H   0  0  0  1  0  1  0  0  0  0  0  0
  1  6  1  0  0  0  0
  1  7  1  0  0  0  0
  1 18  1  0  0  0  0
  1 22  1  0  0  0  0
  2 12  1  0  0  0  0
  2 13  1  0  0  0  0
  2 15  1  0  0  0  0
  2 27  1  0  0  0  0
  3  5  2  0  0  0  0
  3  8  1  0  0  0  0
  3 20  1  0  0  0  0
  4  6  1  0  0  0  0
  4  8  2  0  0  0  0
  4 10  1  0  0  0  0
  5  9  1  0  0  0  0
  5 24  1  0  0  0  0
  6 25  1  0  0  0  0
  6 26  1  0  0  0  0
  7 11  1  0  0  0  0
  7 28  1  0  0  0  0
  7 29  1  0  0  0  0
  8 30  1  0  0  0  0
  9 10  2  0  0  0  0
  9 21  1  0  0  0  0
 10 19  1  0  0  0  0
 11 12  1  0  0  0  0
 11 31  1  0  0  0  0
 11 32  1  0  0  0  0
 12 17  1  0  0  0  0
 12 33  1  0  0  0  0
 13 14  1  0  0  0  0
 13 34  1  0  0  0  0
 13 35  1  0  0  0  0
 14 36  1  0  0  0  0
 14 37  1  0  0  0  0
 14 38  1  0  0  0  0
 15 16  1  0  0  0  0
 15 39  1  0  0  0  0
 15 40  1  0  0  0  0
 16 41  1  0  0  0  0
 16 42  1  0  0  0  0
 16 43  1  0  0  0  0
 17 18  1  0  0  0  0
 17 44  1  0  0  0  0
 17 45  1  0  0  0  0
 18 46  1  0  0  0  0
 18 47  1  0  0  0  0
 19 23  1  0  0  0  0
M  END
> <ConfScore>
-0.651685 

$$$$
4agm


 47 48  0  0  0  0  0  0  0  0999 V2000
   90.4980   98.3810  -44.6910 N   0  3  0  1  0  4  0  0  0  0  0  0
   92.0405  102.3576  -44.2461 N   0  3  0  1  0  4  0  0  0  0  0  0
   86.4097   97.2227  -43.8425 C   0  0  0  1  0  3  0  0  0  0  0  0
   88.6529   96.7190  -44.6351 C   0  0  0  1  0  3  0  0  0  0  0  0
   86.3297   95.9745  -43.2116 C   0  0  0  1  0  3  0  0  0  0  0  0
   89.9050   97.1660  -45.3350 C   0  0  0  1  0  4  0  0  0  0  0  0
   89.5430   99.5450  -44.7170 C   0  0  0  1  0  4  0  0  0  0  0  0
   87.5633   97.5949  -44.5495 C   0  0  0  1  0  3  0  0  0  0  0  0
   87.4314   95.1094  -43.3118 C   0  0  0  1  0  3  0  0  0  0  0  0
   88.6073   95.4456  -44.0085 C   0  0  0  1  0  3  0  0  0  0  0  0
   90.1750  100.7310  -44.0050 C   0  0  0  1  0  4  0  0  0  0  0  0
   91.4300  101.0810  -44.8020 C   0  0  0  1  0  4  0  0  0  0  0  0
   91.0627  103.5137  -44.3648 C   0  0  0  1  0  4  0  0  0  0  0  0
   91.6143  104.8221  -43.8252 C   0  0  0  1  0  4  0  0  0  0  0  0
   93.3664  102.6994  -44.8897 C   0  0  0  1  0  4  0  0  0  0  0  0
   94.4437  101.6528  -44.6381 C   0  0  0  1  0  4  0  0  0  0  0  0
   92.4510   99.9400  -44.6950 C   0  0  0  1  0  4  0  0  0  0  0  0
   91.8210   98.7070  -45.3220 C   0  0  0  1  0  4  0  0  0  0  0  0
   89.6641   94.5801  -44.0791 O   0  0  0  1  0  2  0  0  0  0  0  0
   84.7736   98.5610  -43.7283 I   0  0  0  1  0  1  0  0  0  0  0  0
   87.3185   93.2131  -42.3721 I   0  0  0  1  0  1  0  0  0  0  0  0
   90.6654   98.1803  -43.7171 H   0  0  0  1  0  1  0  0  0  0  0  0
   89.9235   94.4732  -44.9868 H   0  0  0  1  0  1  0  0  0  0  0  0
   85.4420   95.6845  -42.6613 H   0  0  0  1  0  1  0  0  0  0  0  0
   90.6427   96.3492  -45.3020 H   0  0  0  1  0  1  0  0  0  0  0  0
   89.6631   97.4003  -46.3824 H   0  0  0  1  0  1  0  0  0  0  0  0
   92.2147  102.2040  -43.2644 H   0  0  0  1  0  1  0  0  0  0  0  0
   88.6095   99.2654  -44.2068 H   0  0  0  1  0  1  0  0  0  0  0  0
   89.3242   99.8170  -45.7598 H   0  0  0  1  0  1  0  0  0  0  0  0
   87.6113   98.5648  -45.0317 H   0  0  0  1  0  1  0  0  0  0  0  0
   90.4413  100.4594  -42.9731 H   0  0  0  1  0  1  0  0  0  0  0  0
   89.4801  101.5838  -43.9926 H   0  0  0  1  0  1  0  0  0  0  0  0
   91.1614  101.2320  -45.8572 H   0  0  0  1  0  1  0  0  0  0  0  0
   90.1504  103.2610  -43.8031 H   0  0  0  1  0  1  0  0  0  0  0  0
   90.8114  103.6520  -45.4264 H   0  0  0  1  0  1  0  0  0  0  0  0
   90.8653  105.6173  -43.9568 H   0  0  0  1  0  1  0  0  0  0  0  0
   92.5318  105.0877  -44.3712 H   0  0  0  1  0  1  0  0  0  0  0  0
   91.8447  104.7094  -42.7549 H   0  0  0  1  0  1  0  0  0  0  0  0
   93.7131  103.6615  -44.4853 H   0  0  0  1  0  1  0  0  0  0  0  0
   93.2143  102.7908  -45.9754 H   0  0  0  1  0  1  0  0  0  0  0  0
   95.3719  101.9514  -45.1465 H   0  0  0  1  0  1  0  0  0  0  0  0
   94.1089  100.6807  -45.0298 H   0  0  0  1  0  1  0  0  0  0  0  0
   94.6292  101.5679  -43.5575 H   0  0  0  1  0  1  0  0  0  0  0  0
   92.6876   99.7454  -43.6396 H   0  0  0  1  0  1  0  0  0  0  0  0
   93.3718  100.2075  -45.2346 H   0  0  0  1  0  1  0  0  0  0  0  0
   91.6686   98.8910  -46.3961 H   0  0  0  1  0  1  0  0  0  0  0  0
   92.4999   97.8526  -45.1887 H   0  0  0  1  0  1  0  0  0  0  0  0
  1  6  1  0  0  0  0
  1  7  1  0  0  0  0
  1 18  1  0  0  0  0
  1 22  1  0  0  0  0
  2 12  1  0  0  0  0
  2 13  1  0  0  0  0
  2 15  1  0  0  0  0
  2 27  1  0  0  0  0
  3  5  2  0  0  0  0
  3  8  1  0  0  0  0
  3 20  1  0  0  0  0
  4  6  1  0  0  0  0
  4  8  2  0  0  0  0
  4 10  1  0  0  0  0
  5  9  1  0  0  0  0
  5 24  1  0  0  0  0
  6 25  1  0  0  0  0
  6 26  1  0  0  0  0
  7 11  1  0  0  0  0
  7 28  1  0  0  0  0
  7 29  1  0  0  0  0
  8 30  1  0  0  0  0
  9 10  2  0  0  0  0
  9 21  1  0  0  0  0
 10 19  1  0  0  0  0
 11 12  1  0  0  0  0
 11 31  1  0  0  0  0
 11 32  1  0  0  0  0
 12 17  1  0  0  0  0
 12 33  1  0  0  0  0
 13 14  1  0  0  0  0
 13 34  1  0  0  0  0
 13 35  1  0  0  0  0
 14 36  1  0  0  0  0
 14 37  1  0  0  0  0
 14 38  1  0  0  0  0
 15 16  1  0  0  0  0
 15 39  1  0  0  0  0
 15 40  1  0  0  0  0
 16 41  1  0  0  0  0
 16 42  1  0  0  0  0
 16 43  1  0  0  0  0
 17 18  1  0  0  0  0
 17 44  1  0  0  0  0
 17 45  1  0  0  0  0
 18 46  1  0  0  0  0
 18 47  1  0  0  0  0
 19 23  1  0  0  0  0
M  END
> <ConfScore>
-0.648878 

$$$$
4agm


 47 48  0  0  0  0  0  0  0  0999 V2000
   90.4980   98.3810  -44.6910 N   0  3  0  1  0  4  0  0  0  0  0  0
   92.0405  102.3576  -44.2461 N   0  3  0  1  0  4  0  0  0  0  0  0
   91.0166   93.5430  -45.0418 C   0  0  0  1  0  3  0  0  0  0  0  0
   90.4774   95.8983  -44.7669 C   0  0  0  1  0  3  0  0  0  0  0  0
   91.4179   93.4569  -43.7024 C   0  0  0  1  0  3  0  0  0  0  0  0
   89.9050   97.1660  -45.3350 C   0  0  0  1  0  4  0  0  0  0  0  0
   89.5430   99.5450  -44.7170 C   0  0  0  1  0  4  0  0  0  0  0  0
   90.5482   94.7547  -45.5724 C   0  0  0  1  0  3  0  0  0  0  0  0
   91.3424   94.6155  -42.9121 C   0  0  0  1  0  3  0  0  0  0  0  0
   90.8760   95.8486  -43.4050 C   0  0  0  1  0  3  0  0  0  0  0  0
   90.1750  100.7310  -44.0050 C   0  0  0  1  0  4  0  0  0  0  0  0
   91.4300  101.0810  -44.8020 C   0  0  0  1  0  4  0  0  0  0  0  0
   93.2760  102.7484  -45.0383 C   0  0  0  1  0  4  0  0  0  0  0  0
   93.0041  102.9266  -46.5221 C   0  0  0  1  0  4  0  0  0  0  0  0
   92.3508  102.2613  -42.7684 C   0  0  0  1  0  4  0  0  0  0  0  0
   92.9854  103.5256  -42.2044 C   0  0  0  1  0  4  0  0  0  0  0  0
   92.4510   99.9400  -44.6950 C   0  0  0  1  0  4  0  0  0  0  0  0
   91.8210   98.7070  -45.3220 C   0  0  0  1  0  4  0  0  0  0  0  0
   90.8094   96.9552  -42.6038 O   0  0  0  1  0  2  0  0  0  0  0  0
   91.1179   91.8276  -46.2780 I   0  0  0  1  0  1  0  0  0  0  0  0
   91.9581   94.5019  -40.8874 I   0  0  0  1  0  1  0  0  0  0  0  0
   90.6654   98.1803  -43.7171 H   0  0  0  1  0  1  0  0  0  0  0  0
   91.5998   97.4709  -42.7125 H   0  0  0  1  0  1  0  0  0  0  0  0
   91.7768   92.5221  -43.2874 H   0  0  0  1  0  1  0  0  0  0  0  0
   90.1132   97.1980  -46.4158 H   0  0  0  1  0  1  0  0  0  0  0  0
   88.8172   97.1707  -45.1702 H   0  0  0  1  0  1  0  0  0  0  0  0
   91.3582  103.0915  -44.3618 H   0  0  0  1  0  1  0  0  0  0  0  0
   88.6095   99.2654  -44.2068 H   0  0  0  1  0  1  0  0  0  0  0  0
   89.3242   99.8170  -45.7598 H   0  0  0  1  0  1  0  0  0  0  0  0
   90.2397   94.8058  -46.6106 H   0  0  0  1  0  1  0  0  0  0  0  0
   90.4413  100.4594  -42.9731 H   0  0  0  1  0  1  0  0  0  0  0  0
   89.4801  101.5838  -43.9926 H   0  0  0  1  0  1  0  0  0  0  0  0
   91.1614  101.2320  -45.8572 H   0  0  0  1  0  1  0  0  0  0  0  0
   94.0359  101.9618  -44.9144 H   0  0  0  1  0  1  0  0  0  0  0  0
   93.6631  103.6966  -44.6378 H   0  0  0  1  0  1  0  0  0  0  0  0
   92.6415  101.9774  -46.9446 H   0  0  0  1  0  1  0  0  0  0  0  0
   93.9316  103.2254  -47.0329 H   0  0  0  1  0  1  0  0  0  0  0  0
   92.2402  103.7061  -46.6641 H   0  0  0  1  0  1  0  0  0  0  0  0
   93.0444  101.4225  -42.6112 H   0  0  0  1  0  1  0  0  0  0  0  0
   91.4130  102.0689  -42.2264 H   0  0  0  1  0  1  0  0  0  0  0  0
   93.1670  103.3966  -41.1275 H   0  0  0  1  0  1  0  0  0  0  0  0
   92.3070  104.3776  -42.3611 H   0  0  0  1  0  1  0  0  0  0  0  0
   93.9395  103.7184  -42.7161 H   0  0  0  1  0  1  0  0  0  0  0  0
   92.6876   99.7454  -43.6396 H   0  0  0  1  0  1  0  0  0  0  0  0
   93.3718  100.2075  -45.2346 H   0  0  0  1  0  1  0  0  0  0  0  0
   91.6686   98.8910  -46.3961 H   0  0  0  1  0  1  0  0  0  0  0  0
   92.4999   97.8526  -45.1887 H   0  0  0  1  0  1  0  0  0  0  0  0
  1  6  1  0  0  0  0
  1  7  1  0  0  0  0
  1 18  1  0  0  0  0
  1 22  1  0  0  0  0
  2 12  1  0  0  0  0
  2 13  1  0  0  0  0
  2 15  1  0  0  0  0
  2 27  1  0  0  0  0
  3  5  2  0  0  0  0
  3  8  1  0  0  0  0
  3 20  1  0  0  0  0
  4  6  1  0  0  0  0
  4  8  2  0  0  0  0
  4 10  1  0  0  0  0
  5  9  1  0  0  0  0
  5 24  1  0  0  0  0
  6 25  1  0  0  0  0
  6 26  1  0  0  0  0
  7 11  1  0  0  0  0
  7 28  1  0  0  0  0
  7 29  1  0  0  0  0
  8 30  1  0  0  0  0
  9 10  2  0  0  0  0
  9 21  1  0  0  0  0
 10 19  1  0  0  0  0
 11 12  1  0  0  0  0
 11 31  1  0  0  0  0
 11 32  1  0  0  0  0
 12 17  1  0  0  0  0
 12 33  1  0  0  0  0
 13 14  1  0  0  0  0
 13 34  1  0  0  0  0
 13 35  1  0  0  0  0
 14 36  1  0  0  0  0
 14 37  1  0  0  0  0
 14 38  1  0  0  0  0
 15 16  1  0  0  0  0
 15 39  1  0  0  0  0
 15 40  1  0  0  0  0
 16 41  1  0  0  0  0
 16 42  1  0  0  0  0
 16 43  1  0  0  0  0
 17 18  1  0  0  0  0
 17 44  1  0  0  0  0
 17 45  1  0  0  0  0
 18 46  1  0  0  0  0
 18 47  1  0  0  0  0
 19 23  1  0  0  0  0
M  END
> <ConfScore>
-0.648443 

$$$$
4agm


 47 48  0  0  0  0  0  0  0  0999 V2000
   90.4980   98.3810  -44.6910 N   0  3  0  1  0  4  0  0  0  0  0  0
   92.0405  102.3576  -44.2461 N   0  3  0  1  0  4  0  0  0  0  0  0
   91.0477   93.5495  -45.0827 C   0  0  0  1  0  3  0  0  0  0  0  0
   90.4948   95.8988  -44.7838 C   0  0  0  1  0  3  0  0  0  0  0  0
   91.4685   93.4573  -43.7498 C   0  0  0  1  0  3  0  0  0  0  0  0
   89.9050   97.1660  -45.3350 C   0  0  0  1  0  4  0  0  0  0  0  0
   89.5430   99.5450  -44.7170 C   0  0  0  1  0  4  0  0  0  0  0  0
   90.5627   94.7613  -45.5982 C   0  0  0  1  0  3  0  0  0  0  0  0
   91.3956   94.6098  -42.9505 C   0  0  0  1  0  3  0  0  0  0  0  0
   90.9131   95.8428  -43.4281 C   0  0  0  1  0  3  0  0  0  0  0  0
   90.1750  100.7310  -44.0050 C   0  0  0  1  0  4  0  0  0  0  0  0
   91.4300  101.0810  -44.8020 C   0  0  0  1  0  4  0  0  0  0  0  0
   93.2599  102.7635  -45.0554 C   0  0  0  1  0  4  0  0  0  0  0  0
   92.9623  102.9513  -46.5330 C   0  0  0  1  0  4  0  0  0  0  0  0
   92.3758  102.2520  -42.7745 C   0  0  0  1  0  4  0  0  0  0  0  0
   92.9409  103.5412  -42.1933 C   0  0  0  1  0  4  0  0  0  0  0  0
   92.4510   99.9400  -44.6950 C   0  0  0  1  0  4  0  0  0  0  0  0
   91.8210   98.7070  -45.3220 C   0  0  0  1  0  4  0  0  0  0  0  0
   90.8496   96.9433  -42.6183 O   0  0  0  1  0  2  0  0  0  0  0  0
   91.1441   91.8435  -46.3322 I   0  0  0  1  0  1  0  0  0  0  0  0
   92.0408   94.4870  -40.9355 I   0  0  0  1  0  1  0  0  0  0  0  0
   90.6654   98.1803  -43.7171 H   0  0  0  1  0  1  0  0  0  0  0  0
   91.6345   97.4657  -42.7347 H   0  0  0  1  0  1  0  0  0  0  0  0
   91.8402   92.5224  -43.3465 H   0  0  0  1  0  1  0  0  0  0  0  0
   90.0976   97.2070  -46.4183 H   0  0  0  1  0  1  0  0  0  0  0  0
   88.8196   97.1614  -45.1549 H   0  0  0  1  0  1  0  0  0  0  0  0
   91.3512  103.0874  -44.3447 H   0  0  0  1  0  1  0  0  0  0  0  0
   88.6095   99.2654  -44.2068 H   0  0  0  1  0  1  0  0  0  0  0  0
   89.3242   99.8170  -45.7598 H   0  0  0  1  0  1  0  0  0  0  0  0
   90.2392   94.8172  -46.6316 H   0  0  0  1  0  1  0  0  0  0  0  0
   90.4413  100.4594  -42.9731 H   0  0  0  1  0  1  0  0  0  0  0  0
   89.4801  101.5838  -43.9926 H   0  0  0  1  0  1  0  0  0  0  0  0
   91.1614  101.2320  -45.8572 H   0  0  0  1  0  1  0  0  0  0  0  0
   94.0274  101.9815  -44.9502 H   0  0  0  1  0  1  0  0  0  0  0  0
   93.6469  103.7113  -44.6538 H   0  0  0  1  0  1  0  0  0  0  0  0
   92.2047  103.7396  -46.6568 H   0  0  0  1  0  1  0  0  0  0  0  0
   92.5835  102.0084  -46.9548 H   0  0  0  1  0  1  0  0  0  0  0  0
   93.8841  103.2435  -47.0587 H   0  0  0  1  0  1  0  0  0  0  0  0
   93.1205  101.4536  -42.6425 H   0  0  0  1  0  1  0  0  0  0  0  0
   91.4585  101.9932  -42.2250 H   0  0  0  1  0  1  0  0  0  0  0  0
   93.1444  103.4029  -41.1215 H   0  0  0  1  0  1  0  0  0  0  0  0
   92.2107  104.3536  -42.3249 H   0  0  0  1  0  1  0  0  0  0  0  0
   93.8749  103.8008  -42.7128 H   0  0  0  1  0  1  0  0  0  0  0  0
   92.6876   99.7454  -43.6396 H   0  0  0  1  0  1  0  0  0  0  0  0
   93.3718  100.2075  -45.2346 H   0  0  0  1  0  1  0  0  0  0  0  0
   91.6686   98.8910  -46.3961 H   0  0  0  1  0  1  0  0  0  0  0  0
   92.4999   97.8526  -45.1887 H   0  0  0  1  0  1  0  0  0  0  0  0
  1  6  1  0  0  0  0
  1  7  1  0  0  0  0
  1 18  1  0  0  0  0
  1 22  1  0  0  0  0
  2 12  1  0  0  0  0
  2 13  1  0  0  0  0
  2 15  1  0  0  0  0
  2 27  1  0  0  0  0
  3  5  2  0  0  0  0
  3  8  1  0  0  0  0
  3 20  1  0  0  0  0
  4  6  1  0  0  0  0
  4  8  2  0  0  0  0
  4 10  1  0  0  0  0
  5  9  1  0  0  0  0
  5 24  1  0  0  0  0
  6 25  1  0  0  0  0
  6 26  1  0  0  0  0
  7 11  1  0  0  0  0
  7 28  1  0  0  0  0
  7 29  1  0  0  0  0
  8 30  1  0  0  0  0
  9 10  2  0  0  0  0
  9 21  1  0  0  0  0
 10 19  1  0  0  0  0
 11 12  1  0  0  0  0
 11 31  1  0  0  0  0
 11 32  1  0  0  0  0
 12 17  1  0  0  0  0
 12 33  1  0  0  0  0
 13 14  1  0  0  0  0
 13 34  1  0  0  0  0
 13 35  1  0  0  0  0
 14 36  1  0  0  0  0
 14 37  1  0  0  0  0
 14 38  1  0  0  0  0
 15 16  1  0  0  0  0
 15 39  1  0  0  0  0
 15 40  1  0  0  0  0
 16 41  1  0  0  0  0
 16 42  1  0  0  0  0
 16 43  1  0  0  0  0
 17 18  1  0  0  0  0
 17 44  1  0  0  0  0
 17 45  1  0  0  0  0
 18 46  1  0  0  0  0
 18 47  1  0  0  0  0
 19 23  1  0  0  0  0
M  END
> <ConfScore>
-0.648443 

$$$$
4agm


 47 48  0  0  0  0  0  0  0  0999 V2000
   90.4980   98.3810  -44.6910 N   0  3  0  1  0  4  0  0  0  0  0  0
   92.0405  102.3576  -44.2461 N   0  3  0  1  0  4  0  0  0  0  0  0
   91.0477   93.5495  -45.0827 C   0  0  0  1  0  3  0  0  0  0  0  0
   90.4948   95.8988  -44.7838 C   0  0  0  1  0  3  0  0  0  0  0  0
   91.4685   93.4573  -43.7498 C   0  0  0  1  0  3  0  0  0  0  0  0
   89.9050   97.1660  -45.3350 C   0  0  0  1  0  4  0  0  0  0  0  0
   89.5430   99.5450  -44.7170 C   0  0  0  1  0  4  0  0  0  0  0  0
   90.5627   94.7613  -45.5982 C   0  0  0  1  0  3  0  0  0  0  0  0
   91.3956   94.6098  -42.9505 C   0  0  0  1  0  3  0  0  0  0  0  0
   90.9131   95.8428  -43.4281 C   0  0  0  1  0  3  0  0  0  0  0  0
   90.1750  100.7310  -44.0050 C   0  0  0  1  0  4  0  0  0  0  0  0
   91.4300  101.0810  -44.8020 C   0  0  0  1  0  4  0  0  0  0  0  0
   93.2599  102.7635  -45.0554 C   0  0  0  1  0  4  0  0  0  0  0  0
   92.9623  102.9513  -46.5330 C   0  0  0  1  0  4  0  0  0  0  0  0
   92.3758  102.2520  -42.7745 C   0  0  0  1  0  4  0  0  0  0  0  0
   93.3855  101.1546  -42.4658 C   0  0  0  1  0  4  0  0  0  0  0  0
   92.4510   99.9400  -44.6950 C   0  0  0  1  0  4  0  0  0  0  0  0
   91.8210   98.7070  -45.3220 C   0  0  0  1  0  4  0  0  0  0  0  0
   90.8496   96.9433  -42.6183 O   0  0  0  1  0  2  0  0  0  0  0  0
   91.1441   91.8435  -46.3322 I   0  0  0  1  0  1  0  0  0  0  0  0
   92.0408   94.4870  -40.9355 I   0  0  0  1  0  1  0  0  0  0  0  0
   90.6654   98.1803  -43.7171 H   0  0  0  1  0  1  0  0  0  0  0  0
   91.6345   97.4657  -42.7347 H   0  0  0  1  0  1  0  0  0  0  0  0
   91.8402   92.5224  -43.3465 H   0  0  0  1  0  1  0  0  0  0  0  0
   90.0976   97.2070  -46.4183 H   0  0  0  1  0  1  0  0  0  0  0  0
   88.8196   97.1614  -45.1549 H   0  0  0  1  0  1  0  0  0  0  0  0
   91.3512  103.0874  -44.3447 H   0  0  0  1  0  1  0  0  0  0  0  0
   88.6095   99.2654  -44.2068 H   0  0  0  1  0  1  0  0  0  0  0  0
   89.3242   99.8170  -45.7598 H   0  0  0  1  0  1  0  0  0  0  0  0
   90.2392   94.8172  -46.6316 H   0  0  0  1  0  1  0  0  0  0  0  0
   90.4413  100.4594  -42.9731 H   0  0  0  1  0  1  0  0  0  0  0  0
   89.4801  101.5838  -43.9926 H   0  0  0  1  0  1  0  0  0  0  0  0
   91.1614  101.2320  -45.8572 H   0  0  0  1  0  1  0  0  0  0  0  0
   94.0274  101.9815  -44.9502 H   0  0  0  1  0  1  0  0  0  0  0  0
   93.6469  103.7113  -44.6538 H   0  0  0  1  0  1  0  0  0  0  0  0
   92.2047  103.7396  -46.6568 H   0  0  0  1  0  1  0  0  0  0  0  0
   92.5835  102.0084  -46.9548 H   0  0  0  1  0  1  0  0  0  0  0  0
   93.8841  103.2435  -47.0587 H   0  0  0  1  0  1  0  0  0  0  0  0
   91.4501  102.0409  -42.2198 H   0  0  0  1  0  1  0  0  0  0  0  0
   92.7923  103.2143  -42.4414 H   0  0  0  1  0  1  0  0  0  0  0  0
   93.5986  101.1442  -41.3870 H   0  0  0  1  0  1  0  0  0  0  0  0
   94.3163  101.3463  -43.0203 H   0  0  0  1  0  1  0  0  0  0  0  0
   92.9739  100.1804  -42.7671 H   0  0  0  1  0  1  0  0  0  0  0  0
   92.6876   99.7454  -43.6396 H   0  0  0  1  0  1  0  0  0  0  0  0
   93.3718  100.2075  -45.2346 H   0  0  0  1  0  1  0  0  0  0  0  0
   91.6686   98.8910  -46.3961 H   0  0  0  1  0  1  0  0  0  0  0  0
   92.4999   97.8526  -45.1887 H   0  0  0  1  0  1  0  0  0  0  0  0
  1  6  1  0  0  0  0
  1  7  1  0  0  0  0
  1 18  1  0  0  0  0
  1 22  1  0  0  0  0
  2 12  1  0  0  0  0
  2 13  1  0  0  0  0
  2 15  1  0  0  0  0
  2 27  1  0  0  0  0
  3  5  2  0  0  0  0
  3  8  1  0  0  0  0
  3 20  1  0  0  0  0
  4  6  1  0  0  0  0
  4  8  2  0  0  0  0
  4 10  1  0  0  0  0
  5  9  1  0  0  0  0
  5 24  1  0  0  0  0
  6 25  1  0  0  0  0
  6 26  1  0  0  0  0
  7 11  1  0  0  0  0
  7 28  1  0  0  0  0
  7 29  1  0  0  0  0
  8 30  1  0  0  0  0
  9 10  2  0  0  0  0
  9 21  1  0  0  0  0
 10 19  1  0  0  0  0
 11 12  1  0  0  0  0
 11 31  1  0  0  0  0
 11 32  1  0  0  0  0
 12 17  1  0  0  0  0
 12 33  1  0  0  0  0
 13 14  1  0  0  0  0
 13 34  1  0  0  0  0
 13 35  1  0  0  0  0
 14 36  1  0  0  0  0
 14 37  1  0  0  0  0
 14 38  1  0  0  0  0
 15 16  1  0  0  0  0
 15 39  1  0  0  0  0
 15 40  1  0  0  0  0
 16 41  1  0  0  0  0
 16 42  1  0  0  0  0
 16 43  1  0  0  0  0
 17 18  1  0  0  0  0
 17 44  1  0  0  0  0
 17 45  1  0  0  0  0
 18 46  1  0  0  0  0
 18 47  1  0  0  0  0
 19 23  1  0  0  0  0
M  END
> <ConfScore>
-0.648141 

$$$$
4agm


 47 48  0  0  0  0  0  0  0  0999 V2000
    2.5209    6.6299    6.3322 N   0  3  0  1  0  4  0  0  0  0  0  0
    1.3482    8.7931    9.1095 N   0  3  0  1  0  4  0  0  0  0  0  0
    0.9282    3.6363    9.4680 C   0  0  0  1  0  3  0  0  0  0  0  0
    2.4952    4.5115    7.8271 C   0  0  0  1  0  3  0  0  0  0  0  0
    1.9632    3.4663   10.3967 C   0  0  0  1  0  3  0  0  0  0  0  0
    2.7438    5.1386    6.4710 C   0  0  0  1  0  4  0  0  0  0  0  0
    1.0783    6.9623    6.6507 C   0  0  0  1  0  4  0  0  0  0  0  0
    1.1902    4.1562    8.1912 C   0  0  0  1  0  3  0  0  0  0  0  0
    3.2651    3.8255   10.0113 C   0  0  0  1  0  3  0  0  0  0  0  0
    3.5692    4.3528    8.7422 C   0  0  0  1  0  3  0  0  0  0  0  0
    0.8308    8.4545    6.7078 C   0  0  0  1  0  4  0  0  0  0  0  0
    1.7396    9.1749    7.6909 C   0  0  0  1  0  4  0  0  0  0  0  0
    0.0411    9.4598    9.5013 C   0  0  0  1  0  4  0  0  0  0  0  0
   -1.0807    9.2076    8.5086 C   0  0  0  1  0  4  0  0  0  0  0  0
    2.4356    9.0957   10.1170 C   0  0  0  1  0  4  0  0  0  0  0  0
    3.7140    8.3038    9.8770 C   0  0  0  1  0  4  0  0  0  0  0  0
    3.1859    8.7850    7.4475 C   0  0  0  1  0  4  0  0  0  0  0  0
    3.3964    7.2849    7.3752 C   0  0  0  1  0  4  0  0  0  0  0  0
    4.8486    4.6985    8.4039 O   0  0  0  1  0  2  0  0  0  0  0  0
   -1.0512    3.1033    9.9962 I   0  0  0  1  0  1  0  0  0  0  0  0
    4.8419    3.5619   11.4026 I   0  0  0  1  0  1  0  0  0  0  0  0
    2.7339    6.9425    5.3975 H   0  0  0  1  0  1  0  0  0  0  0  0
    5.2609    3.9736    7.9487 H   0  0  0  1  0  1  0  0  0  0  0  0
    1.7647    3.0686   11.3853 H   0  0  0  1  0  1  0  0  0  0  0  0
    3.7926    4.9369    6.2031 H   0  0  0  1  0  1  0  0  0  0  0  0
    2.0783    4.6389    5.7513 H   0  0  0  1  0  1  0  0  0  0  0  0
    1.1982    7.7956    9.1211 H   0  0  0  1  0  1  0  0  0  0  0  0
    0.8217    6.5239    7.6263 H   0  0  0  1  0  1  0  0  0  0  0  0
    0.4352    6.5270    5.8721 H   0  0  0  1  0  1  0  0  0  0  0  0
    0.3788    4.2834    7.4834 H   0  0  0  1  0  1  0  0  0  0  0  0
   -0.2134    8.6243    7.0083 H   0  0  0  1  0  1  0  0  0  0  0  0
    0.9974    8.8751    5.7049 H   0  0  0  1  0  1  0  0  0  0  0  0
    1.6290   10.2607    7.5594 H   0  0  0  1  0  1  0  0  0  0  0  0
    0.2079   10.5456    9.5714 H   0  0  0  1  0  1  0  0  0  0  0  0
   -0.2683    9.0737   10.4834 H   0  0  0  1  0  1  0  0  0  0  0  0
   -1.9940    9.7172    8.8507 H   0  0  0  1  0  1  0  0  0  0  0  0
   -1.2696    8.1263    8.4338 H   0  0  0  1  0  1  0  0  0  0  0  0
   -0.7914    9.5981    7.5211 H   0  0  0  1  0  1  0  0  0  0  0  0
    2.0583    8.8537   11.1212 H   0  0  0  1  0  1  0  0  0  0  0  0
    2.6733   10.1685   10.0626 H   0  0  0  1  0  1  0  0  0  0  0  0
    4.4662    8.5836   10.6288 H   0  0  0  1  0  1  0  0  0  0  0  0
    4.1009    8.5282    8.8717 H   0  0  0  1  0  1  0  0  0  0  0  0
    3.5007    7.2278    9.9554 H   0  0  0  1  0  1  0  0  0  0  0  0
    3.7980    9.1843    8.2683 H   0  0  0  1  0  1  0  0  0  0  0  0
    3.5125    9.2301    6.4957 H   0  0  0  1  0  1  0  0  0  0  0  0
    4.4500    7.0876    7.1265 H   0  0  0  1  0  1  0  0  0  0  0  0
    3.1630    6.8481    8.3567 H   0  0  0  1  0  1  0  0  0  0  0  0
  1  6  1  0  0  0  0
  1  7  1  0  0  0  0
  1 18  1  0  0  0  0
  1 22  1  0  0  0  0
  2 12  1  0  0  0  0
  2 13  1  0  0  0  0
  2 15  1  0  0  0  0
  2 27  1  0  0  0  0
  3  5  2  0  0  0  0
  3  8  1  0  0  0  0
  3 20  1  0  0  0  0
  4  6  1  0  0  0  0
  4  8  2  0  0  0  0
  4 10  1  0  0  0  0
  5  9  1  0  0  0  0
  5 24  1  0  0  0  0
  6 25  1  0  0  0  0
  6 26  1  0  0  0  0
  7 11  1  0  0  0  0
  7 28  1  0  0  0  0
  7 29  1  0  0  0  0
  8 30  1  0  0  0  0
  9 10  2  0  0  0  0
  9 21  1  0  0  0  0
 10 19  1  0  0  0  0
 11 12  1  0  0  0  0
 11 31  1  0  0  0  0
 11 32  1  0  0  0  0
 12 17  1  0  0  0  0
 12 33  1  0  0  0  0
 13 14  1  0  0  0  0
 13 34  1  0  0  0  0
 13 35  1  0  0  0  0
 14 36  1  0  0  0  0
 14 37  1  0  0  0  0
 14 38  1  0  0  0  0
 15 16  1  0  0  0  0
 15 39  1  0  0  0  0
 15 40  1  0  0  0  0
 16 41  1  0  0  0  0
 16 42  1  0  0  0  0
 16 43  1  0  0  0  0
 17 18  1  0  0  0  0
 17 44  1  0  0  0  0
 17 45  1  0  0  0  0
 18 46  1  0  0  0  0
 18 47  1  0  0  0  0
 19 23  1  0  0  0  0
M  END
> <ConfScore>
-0.642196 

$$$$
4agm


 47 48  0  0  0  0  0  0  0  0999 V2000
  123.9590  107.7800  -44.6740 N   0  3  0  1  0  4  0  0  0  0  0  0
  125.6880  111.7520  -44.3740 N   0  3  0  1  0  4  0  0  0  0  0  0
  124.2732  102.9329  -45.1298 C   0  0  0  1  0  3  0  0  0  0  0  0
  123.8338  105.3020  -44.8040 C   0  0  0  1  0  3  0  0  0  0  0  0
  124.6708  102.8008  -43.7934 C   0  0  0  1  0  3  0  0  0  0  0  0
  123.3160  106.6050  -45.3430 C   0  0  0  1  0  4  0  0  0  0  0  0
  123.0630  108.9900  -44.6940 C   0  0  0  1  0  4  0  0  0  0  0  0
  123.8561  104.1745  -45.6340 C   0  0  0  1  0  3  0  0  0  0  0  0
  124.6444  103.9443  -42.9785 C   0  0  0  1  0  3  0  0  0  0  0  0
  124.2308  105.2061  -43.4439 C   0  0  0  1  0  3  0  0  0  0  0  0
  123.7430  110.1330  -43.9560 C   0  0  0  1  0  4  0  0  0  0  0  0
  125.0240  110.4320  -44.7320 C   0  0  0  1  0  4  0  0  0  0  0  0
  126.1114  111.7592  -42.9155 C   0  0  0  1  0  4  0  0  0  0  0  0
  124.9423  111.6470  -41.9522 C   0  0  0  1  0  4  0  0  0  0  0  0
  124.8188  112.9486  -44.6931 C   0  0  0  1  0  4  0  0  0  0  0  0
  124.4908  113.0745  -46.1749 C   0  0  0  1  0  4  0  0  0  0  0  0
  125.9860  109.2400  -44.6290 C   0  0  0  1  0  4  0  0  0  0  0  0
  125.3050  108.0490  -45.2830 C   0  0  0  1  0  4  0  0  0  0  0  0
  124.2362  106.3291  -42.6630 O   0  0  0  1  0  2  0  0  0  0  0  0
  124.3019  101.2733  -46.4435 I   0  0  0  1  0  1  0  0  0  0  0  0
  125.2110  103.7485  -40.9458 I   0  0  0  1  0  1  0  0  0  0  0  0
  124.1080  107.5360  -43.7070 H   0  0  0  1  0  1  0  0  0  0  0  0
  124.5232  106.1018  -41.7863 H   0  0  0  1  0  1  0  0  0  0  0  0
  124.9909  101.8432  -43.3994 H   0  0  0  1  0  1  0  0  0  0  0  0
  122.2284  106.6519  -45.1775 H   0  0  0  1  0  1  0  0  0  0  0  0
  123.5245  106.6521  -46.4223 H   0  0  0  1  0  1  0  0  0  0  0  0
  126.5227  111.8298  -44.9351 H   0  0  0  1  0  1  0  0  0  0  0  0
  122.1100  108.7500  -44.2000 H   0  0  0  1  0  1  0  0  0  0  0  0
  122.8710  109.2880  -45.7350 H   0  0  0  1  0  1  0  0  0  0  0  0
  123.5501  104.2609  -46.6707 H   0  0  0  1  0  1  0  0  0  0  0  0
  123.9820  109.8340  -42.9250 H   0  0  0  1  0  1  0  0  0  0  0  0
  123.0910  111.0190  -43.9380 H   0  0  0  1  0  1  0  0  0  0  0  0
  124.7340  110.5160  -45.7890 H   0  0  0  1  0  1  0  0  0  0  0  0
  126.6449  112.6997  -42.7093 H   0  0  0  1  0  1  0  0  0  0  0  0
  126.7886  110.9100  -42.7433 H   0  0  0  1  0  1  0  0  0  0  0  0
  125.3189  111.6411  -40.9182 H   0  0  0  1  0  1  0  0  0  0  0  0
  124.3924  110.7144  -42.1480 H   0  0  0  1  0  1  0  0  0  0  0  0
  124.2683  112.5058  -42.0916 H   0  0  0  1  0  1  0  0  0  0  0  0
  125.3469  113.8588  -44.3738 H   0  0  0  1  0  1  0  0  0  0  0  0
  123.8766  112.8550  -44.1330 H   0  0  0  1  0  1  0  0  0  0  0  0
  123.9697  112.1675  -46.5143 H   0  0  0  1  0  1  0  0  0  0  0  0
  125.4224  113.1966  -46.7475 H   0  0  0  1  0  1  0  0  0  0  0  0
  123.8448  113.9498  -46.3358 H   0  0  0  1  0  1  0  0  0  0  0  0
  126.1990  109.0180  -43.5740 H   0  0  0  1  0  1  0  0  0  0  0  0
  126.9260  109.4690  -45.1530 H   0  0  0  1  0  1  0  0  0  0  0  0
  125.1760  108.2560  -46.3560 H   0  0  0  1  0  1  0  0  0  0  0  0
  125.9390  107.1600  -45.1550 H   0  0  0  1  0  1  0  0  0  0  0  0
  1  6  1  0  0  0  0
  1  7  1  0  0  0  0
  1 18  1  0  0  0  0
  1 22  1  0  0  0  0
  2 12  1  0  0  0  0
  2 13  1  0  0  0  0
  2 15  1  0  0  0  0
  2 27  1  0  0  0  0
  3  5  2  0  0  0  0
  3  8  1  0  0  0  0
  3 20  1  0  0  0  0
  4  6  1  0  0  0  0
  4  8  2  0  0  0  0
  4 10  1  0  0  0  0
  5  9  1  0  0  0  0
  5 24  1  0  0  0  0
  6 25  1  0  0  0  0
  6 26  1  0  0  0  0
  7 11  1  0  0  0  0
  7 28  1  0  0  0  0
  7 29  1  0  0  0  0
  8 30  1  0  0  0  0
  9 10  2  0  0  0  0
  9 21  1  0  0  0  0
 10 19  1  0  0  0  0
 11 12  1  0  0  0  0
 11 31  1  0  0  0  0
 11 32  1  0  0  0  0
 12 17  1  0  0  0  0
 12 33  1  0  0  0  0
 13 14  1  0  0  0  0
 13 34  1  0  0  0  0
 13 35  1  0  0  0  0
 14 36  1  0  0  0  0
 14 37  1  0  0  0  0
 14 38  1  0  0  0  0
 15 16  1  0  0  0  0
 15 39  1  0  0  0  0
 15 40  1  0  0  0  0
 16 41  1  0  0  0  0
 16 42  1  0  0  0  0
 16 43  1  0  0  0  0
 17 18  1  0  0  0  0
 17 44  1  0  0  0  0
 17 45  1  0  0  0  0
 18 46  1  0  0  0  0
 18 47  1  0  0  0  0
 19 23  1  0  0  0  0
M  END
> <ConfScore>
-0.641002 

$$$$
4agm


 47 48  0  0  0  0  0  0  0  0999 V2000
   90.4980   98.3810  -44.6910 N   0  3  0  1  0  4  0  0  0  0  0  0
   92.0405  102.3576  -44.2461 N   0  3  0  1  0  4  0  0  0  0  0  0
   91.0671   93.5552  -45.0905 C   0  0  0  1  0  3  0  0  0  0  0  0
   90.4948   95.8988  -44.7838 C   0  0  0  1  0  3  0  0  0  0  0  0
   91.4690   93.4565  -43.7522 C   0  0  0  1  0  3  0  0  0  0  0  0
   89.9050   97.1660  -45.3350 C   0  0  0  1  0  4  0  0  0  0  0  0
   89.5430   99.5450  -44.7170 C   0  0  0  1  0  4  0  0  0  0  0  0
   90.5820   94.7674  -45.6049 C   0  0  0  1  0  3  0  0  0  0  0  0
   91.3769   94.6030  -42.9462 C   0  0  0  1  0  3  0  0  0  0  0  0
   90.8934   95.8361  -43.4225 C   0  0  0  1  0  3  0  0  0  0  0  0
   90.1750  100.7310  -44.0050 C   0  0  0  1  0  4  0  0  0  0  0  0
   91.4300  101.0810  -44.8020 C   0  0  0  1  0  4  0  0  0  0  0  0
   92.4671  102.1613  -42.8017 C   0  0  0  1  0  4  0  0  0  0  0  0
   93.1536  103.3800  -42.2094 C   0  0  0  1  0  4  0  0  0  0  0  0
   91.1224  103.5522  -44.3836 C   0  0  0  1  0  4  0  0  0  0  0  0
   90.8135  103.9087  -45.8316 C   0  0  0  1  0  4  0  0  0  0  0  0
   92.4510   99.9400  -44.6950 C   0  0  0  1  0  4  0  0  0  0  0  0
   91.8210   98.7070  -45.3220 C   0  0  0  1  0  4  0  0  0  0  0  0
   90.8109   96.9306  -42.6063 O   0  0  0  1  0  2  0  0  0  0  0  0
   91.1930   91.8585  -46.3500 I   0  0  0  1  0  1  0  0  0  0  0  0
   91.9931   94.4704  -40.9229 I   0  0  0  1  0  1  0  0  0  0  0  0
   90.6654   98.1803  -43.7171 H   0  0  0  1  0  1  0  0  0  0  0  0
   91.5941   97.4587  -42.7075 H   0  0  0  1  0  1  0  0  0  0  0  0
   91.8407   92.5212  -43.3498 H   0  0  0  1  0  1  0  0  0  0  0  0
   90.0976   97.2070  -46.4183 H   0  0  0  1  0  1  0  0  0  0  0  0
   88.8196   97.1614  -45.1549 H   0  0  0  1  0  1  0  0  0  0  0  0
   92.8698  102.5533  -44.7860 H   0  0  0  1  0  1  0  0  0  0  0  0
   88.6095   99.2654  -44.2068 H   0  0  0  1  0  1  0  0  0  0  0  0
   89.3242   99.8170  -45.7598 H   0  0  0  1  0  1  0  0  0  0  0  0
   90.2734   94.8284  -46.6425 H   0  0  0  1  0  1  0  0  0  0  0  0
   90.4413  100.4594  -42.9731 H   0  0  0  1  0  1  0  0  0  0  0  0
   89.4801  101.5838  -43.9926 H   0  0  0  1  0  1  0  0  0  0  0  0
   91.1614  101.2320  -45.8572 H   0  0  0  1  0  1  0  0  0  0  0  0
   93.1637  101.3103  -42.7539 H   0  0  0  1  0  1  0  0  0  0  0  0
   91.5743  101.9366  -42.2004 H   0  0  0  1  0  1  0  0  0  0  0  0
   94.0654  103.6021  -42.7838 H   0  0  0  1  0  1  0  0  0  0  0  0
   93.4198  103.1791  -41.1609 H   0  0  0  1  0  1  0  0  0  0  0  0
   92.4724  104.2433  -42.2554 H   0  0  0  1  0  1  0  0  0  0  0  0
   91.6026  104.4184  -43.9056 H   0  0  0  1  0  1  0  0  0  0  0  0
   90.1763  103.3266  -43.8694 H   0  0  0  1  0  1  0  0  0  0  0  0
   90.1296  104.7694  -45.8603 H   0  0  0  1  0  1  0  0  0  0  0  0
   90.3396  103.0486  -46.3278 H   0  0  0  1  0  1  0  0  0  0  0  0
   91.7463  104.1648  -46.3547 H   0  0  0  1  0  1  0  0  0  0  0  0
   92.6876   99.7454  -43.6396 H   0  0  0  1  0  1  0  0  0  0  0  0
   93.3718  100.2075  -45.2346 H   0  0  0  1  0  1  0  0  0  0  0  0
   91.6686   98.8910  -46.3961 H   0  0  0  1  0  1  0  0  0  0  0  0
   92.4999   97.8526  -45.1887 H   0  0  0  1  0  1  0  0  0  0  0  0
  1  6  1  0  0  0  0
  1  7  1  0  0  0  0
  1 18  1  0  0  0  0
  1 22  1  0  0  0  0
  2 12  1  0  0  0  0
  2 13  1  0  0  0  0
  2 15  1  0  0  0  0
  2 27  1  0  0  0  0
  3  5  2  0  0  0  0
  3  8  1  0  0  0  0
  3 20  1  0  0  0  0
  4  6  1  0  0  0  0
  4  8  2  0  0  0  0
  4 10  1  0  0  0  0
  5  9  1  0  0  0  0
  5 24  1  0  0  0  0
  6 25  1  0  0  0  0
  6 26  1  0  0  0  0
  7 11  1  0  0  0  0
  7 28  1  0  0  0  0
  7 29  1  0  0  0  0
  8 30  1  0  0  0  0
  9 10  2  0  0  0  0
  9 21  1  0  0  0  0
 10 19  1  0  0  0  0
 11 12  1  0  0  0  0
 11 31  1  0  0  0  0
 11 32  1  0  0  0  0
 12 17  1  0  0  0  0
 12 33  1  0  0  0  0
 13 14  1  0  0  0  0
 13 34  1  0  0  0  0
 13 35  1  0  0  0  0
 14 36  1  0  0  0  0
 14 37  1  0  0  0  0
 14 38  1  0  0  0  0
 15 16  1  0  0  0  0
 15 39  1  0  0  0  0
 15 40  1  0  0  0  0
 16 41  1  0  0  0  0
 16 42  1  0  0  0  0
 16 43  1  0  0  0  0
 17 18  1  0  0  0  0
 17 44  1  0  0  0  0
 17 45  1  0  0  0  0
 18 46  1  0  0  0  0
 18 47  1  0  0  0  0
 19 23  1  0  0  0  0
M  END
> <ConfScore>
-0.639475 

$$$$
4agm


 47 48  0  0  0  0  0  0  0  0999 V2000
   90.4980   98.3810  -44.6910 N   0  3  0  1  0  4  0  0  0  0  0  0
   92.0405  102.3576  -44.2461 N   0  3  0  1  0  4  0  0  0  0  0  0
   92.9284   95.0232  -44.4891 C   0  0  0  1  0  3  0  0  0  0  0  0
   90.8112   95.9735  -45.2160 C   0  0  0  1  0  3  0  0  0  0  0  0
   92.6073   93.7974  -45.0864 C   0  0  0  1  0  3  0  0  0  0  0  0
   89.9050   97.1660  -45.3350 C   0  0  0  1  0  4  0  0  0  0  0  0
   89.5430   99.5450  -44.7170 C   0  0  0  1  0  4  0  0  0  0  0  0
   92.0379   96.1058  -44.5531 C   0  0  0  1  0  3  0  0  0  0  0  0
   91.3713   93.6839  -45.7434 C   0  0  0  1  0  3  0  0  0  0  0  0
   90.4519   94.7460  -45.8326 C   0  0  0  1  0  3  0  0  0  0  0  0
   90.1750  100.7310  -44.0050 C   0  0  0  1  0  4  0  0  0  0  0  0
   91.4300  101.0810  -44.8020 C   0  0  0  1  0  4  0  0  0  0  0  0
   91.0627  103.5137  -44.3648 C   0  0  0  1  0  4  0  0  0  0  0  0
   89.7362  103.2491  -43.6737 C   0  0  0  1  0  4  0  0  0  0  0  0
   93.3664  102.6994  -44.8897 C   0  0  0  1  0  4  0  0  0  0  0  0
   94.4437  101.6528  -44.6381 C   0  0  0  1  0  4  0  0  0  0  0  0
   92.4510   99.9400  -44.6950 C   0  0  0  1  0  4  0  0  0  0  0  0
   91.8210   98.7070  -45.3220 C   0  0  0  1  0  4  0  0  0  0  0  0
   89.2597   94.6013  -46.4873 O   0  0  0  1  0  2  0  0  0  0  0  0
   94.7759   95.2447  -43.4796 I   0  0  0  1  0  1  0  0  0  0  0  0
   90.8680   91.8311  -46.6406 I   0  0  0  1  0  1  0  0  0  0  0  0
   90.6654   98.1803  -43.7171 H   0  0  0  1  0  1  0  0  0  0  0  0
   88.5829   94.3700  -45.8618 H   0  0  0  1  0  1  0  0  0  0  0  0
   93.2939   92.9598  -45.0426 H   0  0  0  1  0  1  0  0  0  0  0  0
   89.7316   97.3768  -46.4017 H   0  0  0  1  0  1  0  0  0  0  0  0
   88.9469   96.9354  -44.8458 H   0  0  0  1  0  1  0  0  0  0  0  0
   92.2147  102.2040  -43.2644 H   0  0  0  1  0  1  0  0  0  0  0  0
   88.6095   99.2654  -44.2068 H   0  0  0  1  0  1  0  0  0  0  0  0
   89.3242   99.8170  -45.7598 H   0  0  0  1  0  1  0  0  0  0  0  0
   92.3006   97.0491  -44.0872 H   0  0  0  1  0  1  0  0  0  0  0  0
   90.4413  100.4594  -42.9731 H   0  0  0  1  0  1  0  0  0  0  0  0
   89.4801  101.5838  -43.9926 H   0  0  0  1  0  1  0  0  0  0  0  0
   91.1614  101.2320  -45.8572 H   0  0  0  1  0  1  0  0  0  0  0  0
   90.8693  103.7017  -45.4320 H   0  0  0  1  0  1  0  0  0  0  0  0
   91.5197  104.4064  -43.9136 H   0  0  0  1  0  1  0  0  0  0  0  0
   89.0776  104.1217  -43.7987 H   0  0  0  1  0  1  0  0  0  0  0  0
   89.9089  103.0698  -42.6020 H   0  0  0  1  0  1  0  0  0  0  0  0
   89.2597  102.3636  -44.1211 H   0  0  0  1  0  1  0  0  0  0  0  0
   93.7131  103.6615  -44.4853 H   0  0  0  1  0  1  0  0  0  0  0  0
   93.2143  102.7908  -45.9754 H   0  0  0  1  0  1  0  0  0  0  0  0
   95.3719  101.9514  -45.1465 H   0  0  0  1  0  1  0  0  0  0  0  0
   94.1089  100.6807  -45.0298 H   0  0  0  1  0  1  0  0  0  0  0  0
   94.6292  101.5679  -43.5575 H   0  0  0  1  0  1  0  0  0  0  0  0
   92.6876   99.7454  -43.6396 H   0  0  0  1  0  1  0  0  0  0  0  0
   93.3718  100.2075  -45.2346 H   0  0  0  1  0  1  0  0  0  0  0  0
   91.6686   98.8910  -46.3961 H   0  0  0  1  0  1  0  0  0  0  0  0
   92.4999   97.8526  -45.1887 H   0  0  0  1  0  1  0  0  0  0  0  0
  1  6  1  0  0  0  0
  1  7  1  0  0  0  0
  1 18  1  0  0  0  0
  1 22  1  0  0  0  0
  2 12  1  0  0  0  0
  2 13  1  0  0  0  0
  2 15  1  0  0  0  0
  2 27  1  0  0  0  0
  3  5  2  0  0  0  0
  3  8  1  0  0  0  0
  3 20  1  0  0  0  0
  4  6  1  0  0  0  0
  4  8  2  0  0  0  0
  4 10  1  0  0  0  0
  5  9  1  0  0  0  0
  5 24  1  0  0  0  0
  6 25  1  0  0  0  0
  6 26  1  0  0  0  0
  7 11  1  0  0  0  0
  7 28  1  0  0  0  0
  7 29  1  0  0  0  0
  8 30  1  0  0  0  0
  9 10  2  0  0  0  0
  9 21  1  0  0  0  0
 10 19  1  0  0  0  0
 11 12  1  0  0  0  0
 11 31  1  0  0  0  0
 11 32  1  0  0  0  0
 12 17  1  0  0  0  0
 12 33  1  0  0  0  0
 13 14  1  0  0  0  0
 13 34  1  0  0  0  0
 13 35  1  0  0  0  0
 14 36  1  0  0  0  0
 14 37  1  0  0  0  0
 14 38  1  0  0  0  0
 15 16  1  0  0  0  0
 15 39  1  0  0  0  0
 15 40  1  0  0  0  0
 16 41  1  0  0  0  0
 16 42  1  0  0  0  0
 16 43  1  0  0  0  0
 17 18  1  0  0  0  0
 17 44  1  0  0  0  0
 17 45  1  0  0  0  0
 18 46  1  0  0  0  0
 18 47  1  0  0  0  0
 19 23  1  0  0  0  0
M  END
> <ConfScore>
-0.632124 

$$$$
4agm


 47 48  0  0  0  0  0  0  0  0999 V2000
   90.4980   98.3810  -44.6910 N   0  3  0  1  0  4  0  0  0  0  0  0
   92.0405  102.3576  -44.2461 N   0  3  0  1  0  4  0  0  0  0  0  0
   90.4351   97.9904  -49.0075 C   0  0  0  1  0  3  0  0  0  0  0  0
   89.6262   97.3885  -46.7945 C   0  0  0  1  0  3  0  0  0  0  0  0
   89.1312   97.9500  -49.5181 C   0  0  0  1  0  3  0  0  0  0  0  0
   89.9050   97.1660  -45.3350 C   0  0  0  1  0  4  0  0  0  0  0  0
   89.5430   99.5450  -44.7170 C   0  0  0  1  0  4  0  0  0  0  0  0
   90.6831   97.7126  -47.6546 C   0  0  0  1  0  3  0  0  0  0  0  0
   88.0856   97.6199  -48.6404 C   0  0  0  1  0  3  0  0  0  0  0  0
   88.2917   97.3377  -47.2769 C   0  0  0  1  0  3  0  0  0  0  0  0
   90.1750  100.7310  -44.0050 C   0  0  0  1  0  4  0  0  0  0  0  0
   91.4300  101.0810  -44.8020 C   0  0  0  1  0  4  0  0  0  0  0  0
   91.0368  103.4963  -44.2965 C   0  0  0  1  0  4  0  0  0  0  0  0
   91.5617  104.7844  -43.6861 C   0  0  0  1  0  4  0  0  0  0  0  0
   93.3298  102.7388  -44.9400 C   0  0  0  1  0  4  0  0  0  0  0  0
   93.1382  103.1000  -46.4070 C   0  0  0  1  0  4  0  0  0  0  0  0
   92.4510   99.9400  -44.6950 C   0  0  0  1  0  4  0  0  0  0  0  0
   91.8210   98.7070  -45.3220 C   0  0  0  1  0  4  0  0  0  0  0  0
   87.2479   97.0267  -46.4495 O   0  0  0  1  0  2  0  0  0  0  0  0
   92.0478   98.4753  -50.2901 I   0  0  0  1  0  1  0  0  0  0  0  0
   86.1098   97.5433  -49.4029 I   0  0  0  1  0  1  0  0  0  0  0  0
   90.6654   98.1803  -43.7171 H   0  0  0  1  0  1  0  0  0  0  0  0
   87.1587   96.0824  -46.3962 H   0  0  0  1  0  1  0  0  0  0  0  0
   88.9347   98.1676  -50.5616 H   0  0  0  1  0  1  0  0  0  0  0  0
   88.9609   96.9176  -44.8257 H   0  0  0  1  0  1  0  0  0  0  0  0
   90.6101   96.3278  -45.2309 H   0  0  0  1  0  1  0  0  0  0  0  0
   92.2611  102.1871  -43.2766 H   0  0  0  1  0  1  0  0  0  0  0  0
   88.6095   99.2654  -44.2068 H   0  0  0  1  0  1  0  0  0  0  0  0
   89.3242   99.8170  -45.7598 H   0  0  0  1  0  1  0  0  0  0  0  0
   91.6975   97.7490  -47.2732 H   0  0  0  1  0  1  0  0  0  0  0  0
   90.4413  100.4594  -42.9731 H   0  0  0  1  0  1  0  0  0  0  0  0
   89.4801  101.5838  -43.9926 H   0  0  0  1  0  1  0  0  0  0  0  0
   91.1614  101.2320  -45.8572 H   0  0  0  1  0  1  0  0  0  0  0  0
   90.1329  103.1922  -43.7469 H   0  0  0  1  0  1  0  0  0  0  0  0
   90.7777  103.6882  -45.3479 H   0  0  0  1  0  1  0  0  0  0  0  0
   92.4700  105.0999  -44.2214 H   0  0  0  1  0  1  0  0  0  0  0  0
   91.7998  104.6185  -42.6249 H   0  0  0  1  0  1  0  0  0  0  0  0
   90.7952  105.5697  -43.7711 H   0  0  0  1  0  1  0  0  0  0  0  0
   94.0245  101.8887  -44.8775 H   0  0  0  1  0  1  0  0  0  0  0  0
   93.7630  103.6062  -44.4199 H   0  0  0  1  0  1  0  0  0  0  0  0
   92.4379  103.9439  -46.4892 H   0  0  0  1  0  1  0  0  0  0  0  0
   92.7306  102.2328  -46.9478 H   0  0  0  1  0  1  0  0  0  0  0  0
   94.1060  103.3832  -46.8458 H   0  0  0  1  0  1  0  0  0  0  0  0
   92.6876   99.7454  -43.6396 H   0  0  0  1  0  1  0  0  0  0  0  0
   93.3718  100.2075  -45.2346 H   0  0  0  1  0  1  0  0  0  0  0  0
   91.6686   98.8910  -46.3961 H   0  0  0  1  0  1  0  0  0  0  0  0
   92.4999   97.8526  -45.1887 H   0  0  0  1  0  1  0  0  0  0  0  0
  1  6  1  0  0  0  0
  1  7  1  0  0  0  0
  1 18  1  0  0  0  0
  1 22  1  0  0  0  0
  2 12  1  0  0  0  0
  2 13  1  0  0  0  0
  2 15  1  0  0  0  0
  2 27  1  0  0  0  0
  3  5  2  0  0  0  0
  3  8  1  0  0  0  0
  3 20  1  0  0  0  0
  4  6  1  0  0  0  0
  4  8  2  0  0  0  0
  4 10  1  0  0  0  0
  5  9  1  0  0  0  0
  5 24  1  0  0  0  0
  6 25  1  0  0  0  0
  6 26  1  0  0  0  0
  7 11  1  0  0  0  0
  7 28  1  0  0  0  0
  7 29  1  0  0  0  0
  8 30  1  0  0  0  0
  9 10  2  0  0  0  0
  9 21  1  0  0  0  0
 10 19  1  0  0  0  0
 11 12  1  0  0  0  0
 11 31  1  0  0  0  0
 11 32  1  0  0  0  0
 12 17  1  0  0  0  0
 12 33  1  0  0  0  0
 13 14  1  0  0  0  0
 13 34  1  0  0  0  0
 13 35  1  0  0  0  0
 14 36  1  0  0  0  0
 14 37  1  0  0  0  0
 14 38  1  0  0  0  0
 15 16  1  0  0  0  0
 15 39  1  0  0  0  0
 15 40  1  0  0  0  0
 16 41  1  0  0  0  0
 16 42  1  0  0  0  0
 16 43  1  0  0  0  0
 17 18  1  0  0  0  0
 17 44  1  0  0  0  0
 17 45  1  0  0  0  0
 18 46  1  0  0  0  0
 18 47  1  0  0  0  0
 19 23  1  0  0  0  0
M  END
> <ConfScore>
-0.628008 

$$$$
4agm


 47 48  0  0  0  0  0  0  0  0999 V2000
   90.4980   98.3810  -44.6910 N   0  3  0  1  0  4  0  0  0  0  0  0
   92.0405  102.3576  -44.2461 N   0  3  0  1  0  4  0  0  0  0  0  0
   86.7685   97.2326  -43.1888 C   0  0  0  1  0  3  0  0  0  0  0  0
   88.6574   96.7142  -44.6303 C   0  0  0  1  0  3  0  0  0  0  0  0
   86.3812   95.8864  -43.1770 C   0  0  0  1  0  3  0  0  0  0  0  0
   89.9050   97.1660  -45.3350 C   0  0  0  1  0  4  0  0  0  0  0  0
   89.5430   99.5450  -44.7170 C   0  0  0  1  0  4  0  0  0  0  0  0
   87.8995   97.6459  -43.9094 C   0  0  0  1  0  3  0  0  0  0  0  0
   87.1522   94.9684  -43.9086 C   0  0  0  1  0  3  0  0  0  0  0  0
   88.2945   95.3415  -44.6416 C   0  0  0  1  0  3  0  0  0  0  0  0
   90.1750  100.7310  -44.0050 C   0  0  0  1  0  4  0  0  0  0  0  0
   91.4300  101.0810  -44.8020 C   0  0  0  1  0  4  0  0  0  0  0  0
   91.0627  103.5137  -44.3648 C   0  0  0  1  0  4  0  0  0  0  0  0
   89.7743  103.2897  -43.5920 C   0  0  0  1  0  4  0  0  0  0  0  0
   93.3664  102.6994  -44.8897 C   0  0  0  1  0  4  0  0  0  0  0  0
   93.2814  102.8364  -46.4040 C   0  0  0  1  0  4  0  0  0  0  0  0
   92.4510   99.9400  -44.6950 C   0  0  0  1  0  4  0  0  0  0  0  0
   91.8210   98.7070  -45.3220 C   0  0  0  1  0  4  0  0  0  0  0  0
   89.0259   94.4184  -45.3371 O   0  0  0  1  0  2  0  0  0  0  0  0
   85.6362   98.6580  -42.1085 I   0  0  0  1  0  1  0  0  0  0  0  0
   86.5699   92.9307  -43.9091 I   0  0  0  1  0  1  0  0  0  0  0  0
   90.6654   98.1803  -43.7171 H   0  0  0  1  0  1  0  0  0  0  0  0
   89.8866   94.7746  -45.5241 H   0  0  0  1  0  1  0  0  0  0  0  0
   85.5105   95.5622  -42.6187 H   0  0  0  1  0  1  0  0  0  0  0  0
   90.6449   96.3510  -45.3073 H   0  0  0  1  0  1  0  0  0  0  0  0
   89.6576   97.4021  -46.3807 H   0  0  0  1  0  1  0  0  0  0  0  0
   92.2147  102.2040  -43.2644 H   0  0  0  1  0  1  0  0  0  0  0  0
   88.6095   99.2654  -44.2068 H   0  0  0  1  0  1  0  0  0  0  0  0
   89.3242   99.8170  -45.7598 H   0  0  0  1  0  1  0  0  0  0  0  0
   88.1880   98.6911  -43.9082 H   0  0  0  1  0  1  0  0  0  0  0  0
   90.4413  100.4594  -42.9731 H   0  0  0  1  0  1  0  0  0  0  0  0
   89.4801  101.5838  -43.9926 H   0  0  0  1  0  1  0  0  0  0  0  0
   91.1614  101.2320  -45.8572 H   0  0  0  1  0  1  0  0  0  0  0  0
   90.8127  103.6543  -45.4275 H   0  0  0  1  0  1  0  0  0  0  0  0
   91.5472  104.4228  -43.9802 H   0  0  0  1  0  1  0  0  0  0  0  0
   90.0073  103.1405  -42.5269 H   0  0  0  1  0  1  0  0  0  0  0  0
   89.2603  102.3994  -43.9837 H   0  0  0  1  0  1  0  0  0  0  0  0
   89.1216  104.1687  -43.7044 H   0  0  0  1  0  1  0  0  0  0  0  0
   94.0860  101.9028  -44.6510 H   0  0  0  1  0  1  0  0  0  0  0  0
   93.7220  103.6529  -44.4716 H   0  0  0  1  0  1  0  0  0  0  0  0
   94.2700  103.1030  -46.8049 H   0  0  0  1  0  1  0  0  0  0  0  0
   92.5582  103.6249  -46.6607 H   0  0  0  1  0  1  0  0  0  0  0  0
   92.9537  101.8824  -46.8421 H   0  0  0  1  0  1  0  0  0  0  0  0
   92.6876   99.7454  -43.6396 H   0  0  0  1  0  1  0  0  0  0  0  0
   93.3718  100.2075  -45.2346 H   0  0  0  1  0  1  0  0  0  0  0  0
   91.6686   98.8910  -46.3961 H   0  0  0  1  0  1  0  0  0  0  0  0
   92.4999   97.8526  -45.1887 H   0  0  0  1  0  1  0  0  0  0  0  0
  1  6  1  0  0  0  0
  1  7  1  0  0  0  0
  1 18  1  0  0  0  0
  1 22  1  0  0  0  0
  2 12  1  0  0  0  0
  2 13  1  0  0  0  0
  2 15  1  0  0  0  0
  2 27  1  0  0  0  0
  3  5  2  0  0  0  0
  3  8  1  0  0  0  0
  3 20  1  0  0  0  0
  4  6  1  0  0  0  0
  4  8  2  0  0  0  0
  4 10  1  0  0  0  0
  5  9  1  0  0  0  0
  5 24  1  0  0  0  0
  6 25  1  0  0  0  0
  6 26  1  0  0  0  0
  7 11  1  0  0  0  0
  7 28  1  0  0  0  0
  7 29  1  0  0  0  0
  8 30  1  0  0  0  0
  9 10  2  0  0  0  0
  9 21  1  0  0  0  0
 10 19  1  0  0  0  0
 11 12  1  0  0  0  0
 11 31  1  0  0  0  0
 11 32  1  0  0  0  0
 12 17  1  0  0  0  0
 12 33  1  0  0  0  0
 13 14  1  0  0  0  0
 13 34  1  0  0  0  0
 13 35  1  0  0  0  0
 14 36  1  0  0  0  0
 14 37  1  0  0  0  0
 14 38  1  0  0  0  0
 15 16  1  0  0  0  0
 15 39  1  0  0  0  0
 15 40  1  0  0  0  0
 16 41  1  0  0  0  0
 16 42  1  0  0  0  0
 16 43  1  0  0  0  0
 17 18  1  0  0  0  0
 17 44  1  0  0  0  0
 17 45  1  0  0  0  0
 18 46  1  0  0  0  0
 18 47  1  0  0  0  0
 19 23  1  0  0  0  0
M  END
> <ConfScore>
-0.627173 

$$$$
4agm


 47 48  0  0  0  0  0  0  0  0999 V2000
   90.4980   98.3810  -44.6910 N   0  3  0  1  0  4  0  0  0  0  0  0
   92.0405  102.3576  -44.2461 N   0  3  0  1  0  4  0  0  0  0  0  0
   91.0166   93.5430  -45.0418 C   0  0  0  1  0  3  0  0  0  0  0  0
   90.4774   95.8983  -44.7669 C   0  0  0  1  0  3  0  0  0  0  0  0
   91.4179   93.4569  -43.7024 C   0  0  0  1  0  3  0  0  0  0  0  0
   89.9050   97.1660  -45.3350 C   0  0  0  1  0  4  0  0  0  0  0  0
   89.5430   99.5450  -44.7170 C   0  0  0  1  0  4  0  0  0  0  0  0
   90.5482   94.7547  -45.5724 C   0  0  0  1  0  3  0  0  0  0  0  0
   91.3424   94.6155  -42.9121 C   0  0  0  1  0  3  0  0  0  0  0  0
   90.8760   95.8486  -43.4050 C   0  0  0  1  0  3  0  0  0  0  0  0
   90.1750  100.7310  -44.0050 C   0  0  0  1  0  4  0  0  0  0  0  0
   91.4300  101.0810  -44.8020 C   0  0  0  1  0  4  0  0  0  0  0  0
   91.0149  103.4776  -44.2294 C   0  0  0  1  0  4  0  0  0  0  0  0
   91.5572  104.7776  -43.6608 C   0  0  0  1  0  4  0  0  0  0  0  0
   93.2913  102.7775  -44.9866 C   0  0  0  1  0  4  0  0  0  0  0  0
   93.8992  104.0685  -44.4547 C   0  0  0  1  0  4  0  0  0  0  0  0
   92.4510   99.9400  -44.6950 C   0  0  0  1  0  4  0  0  0  0  0  0
   91.8210   98.7070  -45.3220 C   0  0  0  1  0  4  0  0  0  0  0  0
   90.8094   96.9552  -42.6038 O   0  0  0  1  0  2  0  0  0  0  0  0
   91.1179   91.8276  -46.2780 I   0  0  0  1  0  1  0  0  0  0  0  0
   91.9581   94.5019  -40.8874 I   0  0  0  1  0  1  0  0  0  0  0  0
   90.6654   98.1803  -43.7171 H   0  0  0  1  0  1  0  0  0  0  0  0
   91.5998   97.4709  -42.7125 H   0  0  0  1  0  1  0  0  0  0  0  0
   91.7768   92.5221  -43.2874 H   0  0  0  1  0  1  0  0  0  0  0  0
   90.1132   97.1980  -46.4158 H   0  0  0  1  0  1  0  0  0  0  0  0
   88.8172   97.1707  -45.1702 H   0  0  0  1  0  1  0  0  0  0  0  0
   92.3060  102.1718  -43.2908 H   0  0  0  1  0  1  0  0  0  0  0  0
   88.6095   99.2654  -44.2068 H   0  0  0  1  0  1  0  0  0  0  0  0
   89.3242   99.8170  -45.7598 H   0  0  0  1  0  1  0  0  0  0  0  0
   90.2397   94.8058  -46.6106 H   0  0  0  1  0  1  0  0  0  0  0  0
   90.4413  100.4594  -42.9731 H   0  0  0  1  0  1  0  0  0  0  0  0
   89.4801  101.5838  -43.9926 H   0  0  0  1  0  1  0  0  0  0  0  0
   91.1614  101.2320  -45.8572 H   0  0  0  1  0  1  0  0  0  0  0  0
   90.1573  103.1593  -43.6171 H   0  0  0  1  0  1  0  0  0  0  0  0
   90.6794  103.6604  -45.2606 H   0  0  0  1  0  1  0  0  0  0  0  0
   91.8723  104.6183  -42.6186 H   0  0  0  1  0  1  0  0  0  0  0  0
   90.7734  105.5489  -43.6937 H   0  0  0  1  0  1  0  0  0  0  0  0
   92.4208  105.1072  -44.2582 H   0  0  0  1  0  1  0  0  0  0  0  0
   93.0374  102.9220  -46.0468 H   0  0  0  1  0  1  0  0  0  0  0  0
   94.0381  101.9750  -44.8938 H   0  0  0  1  0  1  0  0  0  0  0  0
   94.8113  104.3059  -45.0212 H   0  0  0  1  0  1  0  0  0  0  0  0
   94.1517  103.9438  -43.3911 H   0  0  0  1  0  1  0  0  0  0  0  0
   93.1755  104.8891  -44.5654 H   0  0  0  1  0  1  0  0  0  0  0  0
   92.6876   99.7454  -43.6396 H   0  0  0  1  0  1  0  0  0  0  0  0
   93.3718  100.2075  -45.2346 H   0  0  0  1  0  1  0  0  0  0  0  0
   91.6686   98.8910  -46.3961 H   0  0  0  1  0  1  0  0  0  0  0  0
   92.4999   97.8526  -45.1887 H   0  0  0  1  0  1  0  0  0  0  0  0
  1  6  1  0  0  0  0
  1  7  1  0  0  0  0
  1 18  1  0  0  0  0
  1 22  1  0  0  0  0
  2 12  1  0  0  0  0
  2 13  1  0  0  0  0
  2 15  1  0  0  0  0
  2 27  1  0  0  0  0
  3  5  2  0  0  0  0
  3  8  1  0  0  0  0
  3 20  1  0  0  0  0
  4  6  1  0  0  0  0
  4  8  2  0  0  0  0
  4 10  1  0  0  0  0
  5  9  1  0  0  0  0
  5 24  1  0  0  0  0
  6 25  1  0  0  0  0
  6 26  1  0  0  0  0
  7 11  1  0  0  0  0
  7 28  1  0  0  0  0
  7 29  1  0  0  0  0
  8 30  1  0  0  0  0
  9 10  2  0  0  0  0
  9 21  1  0  0  0  0
 10 19  1  0  0  0  0
 11 12  1  0  0  0  0
 11 31  1  0  0  0  0
 11 32  1  0  0  0  0
 12 17  1  0  0  0  0
 12 33  1  0  0  0  0
 13 14  1  0  0  0  0
 13 34  1  0  0  0  0
 13 35  1  0  0  0  0
 14 36  1  0  0  0  0
 14 37  1  0  0  0  0
 14 38  1  0  0  0  0
 15 16  1  0  0  0  0
 15 39  1  0  0  0  0
 15 40  1  0  0  0  0
 16 41  1  0  0  0  0
 16 42  1  0  0  0  0
 16 43  1  0  0  0  0
 17 18  1  0  0  0  0
 17 44  1  0  0  0  0
 17 45  1  0  0  0  0
 18 46  1  0  0  0  0
 18 47  1  0  0  0  0
 19 23  1  0  0  0  0
M  END
> <ConfScore>
-0.611275 

$$$$
4agm


 47 48  0  0  0  0  0  0  0  0999 V2000
   90.4980   98.3810  -44.6910 N   0  3  0  1  0  4  0  0  0  0  0  0
   92.0405  102.3576  -44.2461 N   0  3  0  1  0  4  0  0  0  0  0  0
   91.0166   93.5430  -45.0418 C   0  0  0  1  0  3  0  0  0  0  0  0
   90.4774   95.8983  -44.7669 C   0  0  0  1  0  3  0  0  0  0  0  0
   91.4179   93.4569  -43.7024 C   0  0  0  1  0  3  0  0  0  0  0  0
   89.9050   97.1660  -45.3350 C   0  0  0  1  0  4  0  0  0  0  0  0
   89.5430   99.5450  -44.7170 C   0  0  0  1  0  4  0  0  0  0  0  0
   90.5482   94.7547  -45.5724 C   0  0  0  1  0  3  0  0  0  0  0  0
   91.3424   94.6155  -42.9121 C   0  0  0  1  0  3  0  0  0  0  0  0
   90.8760   95.8486  -43.4050 C   0  0  0  1  0  3  0  0  0  0  0  0
   90.1750  100.7310  -44.0050 C   0  0  0  1  0  4  0  0  0  0  0  0
   91.4300  101.0810  -44.8020 C   0  0  0  1  0  4  0  0  0  0  0  0
   93.2760  102.7484  -45.0383 C   0  0  0  1  0  4  0  0  0  0  0  0
   93.8921  104.0586  -44.5787 C   0  0  0  1  0  4  0  0  0  0  0  0
   92.3508  102.2613  -42.7684 C   0  0  0  1  0  4  0  0  0  0  0  0
   92.9854  103.5256  -42.2044 C   0  0  0  1  0  4  0  0  0  0  0  0
   92.4510   99.9400  -44.6950 C   0  0  0  1  0  4  0  0  0  0  0  0
   91.8210   98.7070  -45.3220 C   0  0  0  1  0  4  0  0  0  0  0  0
   90.8094   96.9552  -42.6038 O   0  0  0  1  0  2  0  0  0  0  0  0
   91.1179   91.8276  -46.2780 I   0  0  0  1  0  1  0  0  0  0  0  0
   91.9581   94.5019  -40.8874 I   0  0  0  1  0  1  0  0  0  0  0  0
   90.6654   98.1803  -43.7171 H   0  0  0  1  0  1  0  0  0  0  0  0
   91.5998   97.4709  -42.7125 H   0  0  0  1  0  1  0  0  0  0  0  0
   91.7768   92.5221  -43.2874 H   0  0  0  1  0  1  0  0  0  0  0  0
   90.1132   97.1980  -46.4158 H   0  0  0  1  0  1  0  0  0  0  0  0
   88.8172   97.1707  -45.1702 H   0  0  0  1  0  1  0  0  0  0  0  0
   91.3582  103.0915  -44.3618 H   0  0  0  1  0  1  0  0  0  0  0  0
   88.6095   99.2654  -44.2068 H   0  0  0  1  0  1  0  0  0  0  0  0
   89.3242   99.8170  -45.7598 H   0  0  0  1  0  1  0  0  0  0  0  0
   90.2397   94.8058  -46.6106 H   0  0  0  1  0  1  0  0  0  0  0  0
   90.4413  100.4594  -42.9731 H   0  0  0  1  0  1  0  0  0  0  0  0
   89.4801  101.5838  -43.9926 H   0  0  0  1  0  1  0  0  0  0  0  0
   91.1614  101.2320  -45.8572 H   0  0  0  1  0  1  0  0  0  0  0  0
   92.9967  102.8467  -46.0985 H   0  0  0  1  0  1  0  0  0  0  0  0
   94.0271  101.9525  -44.9307 H   0  0  0  1  0  1  0  0  0  0  0  0
   93.1615  104.8715  -44.7058 H   0  0  0  1  0  1  0  0  0  0  0  0
   94.7890  104.2738  -45.1784 H   0  0  0  1  0  1  0  0  0  0  0  0
   94.1716  103.9801  -43.5170 H   0  0  0  1  0  1  0  0  0  0  0  0
   93.0444  101.4225  -42.6112 H   0  0  0  1  0  1  0  0  0  0  0  0
   91.4130  102.0689  -42.2264 H   0  0  0  1  0  1  0  0  0  0  0  0
   93.1670  103.3966  -41.1275 H   0  0  0  1  0  1  0  0  0  0  0  0
   92.3070  104.3776  -42.3611 H   0  0  0  1  0  1  0  0  0  0  0  0
   93.9395  103.7184  -42.7161 H   0  0  0  1  0  1  0  0  0  0  0  0
   92.6876   99.7454  -43.6396 H   0  0  0  1  0  1  0  0  0  0  0  0
   93.3718  100.2075  -45.2346 H   0  0  0  1  0  1  0  0  0  0  0  0
   91.6686   98.8910  -46.3961 H   0  0  0  1  0  1  0  0  0  0  0  0
   92.4999   97.8526  -45.1887 H   0  0  0  1  0  1  0  0  0  0  0  0
  1  6  1  0  0  0  0
  1  7  1  0  0  0  0
  1 18  1  0  0  0  0
  1 22  1  0  0  0  0
  2 12  1  0  0  0  0
  2 13  1  0  0  0  0
  2 15  1  0  0  0  0
  2 27  1  0  0  0  0
  3  5  2  0  0  0  0
  3  8  1  0  0  0  0
  3 20  1  0  0  0  0
  4  6  1  0  0  0  0
  4  8  2  0  0  0  0
  4 10  1  0  0  0  0
  5  9  1  0  0  0  0
  5 24  1  0  0  0  0
  6 25  1  0  0  0  0
  6 26  1  0  0  0  0
  7 11  1  0  0  0  0
  7 28  1  0  0  0  0
  7 29  1  0  0  0  0
  8 30  1  0  0  0  0
  9 10  2  0  0  0  0
  9 21  1  0  0  0  0
 10 19  1  0  0  0  0
 11 12  1  0  0  0  0
 11 31  1  0  0  0  0
 11 32  1  0  0  0  0
 12 17  1  0  0  0  0
 12 33  1  0  0  0  0
 13 14  1  0  0  0  0
 13 34  1  0  0  0  0
 13 35  1  0  0  0  0
 14 36  1  0  0  0  0
 14 37  1  0  0  0  0
 14 38  1  0  0  0  0
 15 16  1  0  0  0  0
 15 39  1  0  0  0  0
 15 40  1  0  0  0  0
 16 41  1  0  0  0  0
 16 42  1  0  0  0  0
 16 43  1  0  0  0  0
 17 18  1  0  0  0  0
 17 44  1  0  0  0  0
 17 45  1  0  0  0  0
 18 46  1  0  0  0  0
 18 47  1  0  0  0  0
 19 23  1  0  0  0  0
M  END
> <ConfScore>
-0.6089 

$$$$
4agm


 47 48  0  0  0  0  0  0  0  0999 V2000
   90.4980   98.3810  -44.6910 N   0  3  0  1  0  4  0  0  0  0  0  0
   92.0405  102.3576  -44.2461 N   0  3  0  1  0  4  0  0  0  0  0  0
   92.9284   95.0232  -44.4891 C   0  0  0  1  0  3  0  0  0  0  0  0
   90.8112   95.9735  -45.2160 C   0  0  0  1  0  3  0  0  0  0  0  0
   92.6073   93.7974  -45.0864 C   0  0  0  1  0  3  0  0  0  0  0  0
   89.9050   97.1660  -45.3350 C   0  0  0  1  0  4  0  0  0  0  0  0
   89.5430   99.5450  -44.7170 C   0  0  0  1  0  4  0  0  0  0  0  0
   92.0379   96.1058  -44.5531 C   0  0  0  1  0  3  0  0  0  0  0  0
   91.3713   93.6839  -45.7434 C   0  0  0  1  0  3  0  0  0  0  0  0
   90.4519   94.7460  -45.8326 C   0  0  0  1  0  3  0  0  0  0  0  0
   90.1750  100.7310  -44.0050 C   0  0  0  1  0  4  0  0  0  0  0  0
   91.4300  101.0810  -44.8020 C   0  0  0  1  0  4  0  0  0  0  0  0
   91.0627  103.5137  -44.3648 C   0  0  0  1  0  4  0  0  0  0  0  0
   91.6143  104.8221  -43.8252 C   0  0  0  1  0  4  0  0  0  0  0  0
   93.3664  102.6994  -44.8897 C   0  0  0  1  0  4  0  0  0  0  0  0
   94.4437  101.6528  -44.6381 C   0  0  0  1  0  4  0  0  0  0  0  0
   92.4510   99.9400  -44.6950 C   0  0  0  1  0  4  0  0  0  0  0  0
   91.8210   98.7070  -45.3220 C   0  0  0  1  0  4  0  0  0  0  0  0
   89.2597   94.6013  -46.4873 O   0  0  0  1  0  2  0  0  0  0  0  0
   94.7759   95.2447  -43.4796 I   0  0  0  1  0  1  0  0  0  0  0  0
   90.8680   91.8311  -46.6406 I   0  0  0  1  0  1  0  0  0  0  0  0
   90.6654   98.1803  -43.7171 H   0  0  0  1  0  1  0  0  0  0  0  0
   88.5829   94.3700  -45.8618 H   0  0  0  1  0  1  0  0  0  0  0  0
   93.2939   92.9598  -45.0426 H   0  0  0  1  0  1  0  0  0  0  0  0
   89.7316   97.3768  -46.4017 H   0  0  0  1  0  1  0  0  0  0  0  0
   88.9469   96.9354  -44.8458 H   0  0  0  1  0  1  0  0  0  0  0  0
   92.2147  102.2040  -43.2644 H   0  0  0  1  0  1  0  0  0  0  0  0
   88.6095   99.2654  -44.2068 H   0  0  0  1  0  1  0  0  0  0  0  0
   89.3242   99.8170  -45.7598 H   0  0  0  1  0  1  0  0  0  0  0  0
   92.3006   97.0491  -44.0872 H   0  0  0  1  0  1  0  0  0  0  0  0
   90.4413  100.4594  -42.9731 H   0  0  0  1  0  1  0  0  0  0  0  0
   89.4801  101.5838  -43.9926 H   0  0  0  1  0  1  0  0  0  0  0  0
   91.1614  101.2320  -45.8572 H   0  0  0  1  0  1  0  0  0  0  0  0
   90.1504  103.2610  -43.8031 H   0  0  0  1  0  1  0  0  0  0  0  0
   90.8114  103.6520  -45.4264 H   0  0  0  1  0  1  0  0  0  0  0  0
   90.8585  105.6134  -43.9404 H   0  0  0  1  0  1  0  0  0  0  0  0
   92.5218  105.0969  -44.3833 H   0  0  0  1  0  1  0  0  0  0  0  0
   91.8615  104.7041  -42.7592 H   0  0  0  1  0  1  0  0  0  0  0  0
   93.7131  103.6615  -44.4853 H   0  0  0  1  0  1  0  0  0  0  0  0
   93.2143  102.7908  -45.9754 H   0  0  0  1  0  1  0  0  0  0  0  0
   95.3719  101.9514  -45.1465 H   0  0  0  1  0  1  0  0  0  0  0  0
   94.1089  100.6807  -45.0298 H   0  0  0  1  0  1  0  0  0  0  0  0
   94.6292  101.5679  -43.5575 H   0  0  0  1  0  1  0  0  0  0  0  0
   92.6876   99.7454  -43.6396 H   0  0  0  1  0  1  0  0  0  0  0  0
   93.3718  100.2075  -45.2346 H   0  0  0  1  0  1  0  0  0  0  0  0
   91.6686   98.8910  -46.3961 H   0  0  0  1  0  1  0  0  0  0  0  0
   92.4999   97.8526  -45.1887 H   0  0  0  1  0  1  0  0  0  0  0  0
  1  6  1  0  0  0  0
  1  7  1  0  0  0  0
  1 18  1  0  0  0  0
  1 22  1  0  0  0  0
  2 12  1  0  0  0  0
  2 13  1  0  0  0  0
  2 15  1  0  0  0  0
  2 27  1  0  0  0  0
  3  5  2  0  0  0  0
  3  8  1  0  0  0  0
  3 20  1  0  0  0  0
  4  6  1  0  0  0  0
  4  8  2  0  0  0  0
  4 10  1  0  0  0  0
  5  9  1  0  0  0  0
  5 24  1  0  0  0  0
  6 25  1  0  0  0  0
  6 26  1  0  0  0  0
  7 11  1  0  0  0  0
  7 28  1  0  0  0  0
  7 29  1  0  0  0  0
  8 30  1  0  0  0  0
  9 10  2  0  0  0  0
  9 21  1  0  0  0  0
 10 19  1  0  0  0  0
 11 12  1  0  0  0  0
 11 31  1  0  0  0  0
 11 32  1  0  0  0  0
 12 17  1  0  0  0  0
 12 33  1  0  0  0  0
 13 14  1  0  0  0  0
 13 34  1  0  0  0  0
 13 35  1  0  0  0  0
 14 36  1  0  0  0  0
 14 37  1  0  0  0  0
 14 38  1  0  0  0  0
 15 16  1  0  0  0  0
 15 39  1  0  0  0  0
 15 40  1  0  0  0  0
 16 41  1  0  0  0  0
 16 42  1  0  0  0  0
 16 43  1  0  0  0  0
 17 18  1  0  0  0  0
 17 44  1  0  0  0  0
 17 45  1  0  0  0  0
 18 46  1  0  0  0  0
 18 47  1  0  0  0  0
 19 23  1  0  0  0  0
M  END
> <ConfScore>
-0.608111 

$$$$
4agm


 47 48  0  0  0  0  0  0  0  0999 V2000
   90.4980   98.3810  -44.6910 N   0  3  0  1  0  4  0  0  0  0  0  0
   92.0405  102.3576  -44.2461 N   0  3  0  1  0  4  0  0  0  0  0  0
   91.0671   93.5552  -45.0905 C   0  0  0  1  0  3  0  0  0  0  0  0
   90.4948   95.8988  -44.7838 C   0  0  0  1  0  3  0  0  0  0  0  0
   91.4690   93.4565  -43.7522 C   0  0  0  1  0  3  0  0  0  0  0  0
   89.9050   97.1660  -45.3350 C   0  0  0  1  0  4  0  0  0  0  0  0
   89.5430   99.5450  -44.7170 C   0  0  0  1  0  4  0  0  0  0  0  0
   90.5820   94.7674  -45.6049 C   0  0  0  1  0  3  0  0  0  0  0  0
   91.3769   94.6030  -42.9462 C   0  0  0  1  0  3  0  0  0  0  0  0
   90.8934   95.8361  -43.4225 C   0  0  0  1  0  3  0  0  0  0  0  0
   90.1750  100.7310  -44.0050 C   0  0  0  1  0  4  0  0  0  0  0  0
   91.4300  101.0810  -44.8020 C   0  0  0  1  0  4  0  0  0  0  0  0
   92.4671  102.1613  -42.8017 C   0  0  0  1  0  4  0  0  0  0  0  0
   91.3014  101.9013  -41.8632 C   0  0  0  1  0  4  0  0  0  0  0  0
   91.1224  103.5522  -44.3836 C   0  0  0  1  0  4  0  0  0  0  0  0
   90.8135  103.9087  -45.8316 C   0  0  0  1  0  4  0  0  0  0  0  0
   92.4510   99.9400  -44.6950 C   0  0  0  1  0  4  0  0  0  0  0  0
   91.8210   98.7070  -45.3220 C   0  0  0  1  0  4  0  0  0  0  0  0
   90.8109   96.9306  -42.6063 O   0  0  0  1  0  2  0  0  0  0  0  0
   91.1930   91.8585  -46.3500 I   0  0  0  1  0  1  0  0  0  0  0  0
   91.9931   94.4704  -40.9229 I   0  0  0  1  0  1  0  0  0  0  0  0
   90.6654   98.1803  -43.7171 H   0  0  0  1  0  1  0  0  0  0  0  0
   91.5941   97.4587  -42.7075 H   0  0  0  1  0  1  0  0  0  0  0  0
   91.8407   92.5212  -43.3498 H   0  0  0  1  0  1  0  0  0  0  0  0
   90.0976   97.2070  -46.4183 H   0  0  0  1  0  1  0  0  0  0  0  0
   88.8196   97.1614  -45.1549 H   0  0  0  1  0  1  0  0  0  0  0  0
   92.8698  102.5533  -44.7860 H   0  0  0  1  0  1  0  0  0  0  0  0
   88.6095   99.2654  -44.2068 H   0  0  0  1  0  1  0  0  0  0  0  0
   89.3242   99.8170  -45.7598 H   0  0  0  1  0  1  0  0  0  0  0  0
   90.2734   94.8284  -46.6425 H   0  0  0  1  0  1  0  0  0  0  0  0
   90.4413  100.4594  -42.9731 H   0  0  0  1  0  1  0  0  0  0  0  0
   89.4801  101.5838  -43.9926 H   0  0  0  1  0  1  0  0  0  0  0  0
   91.1614  101.2320  -45.8572 H   0  0  0  1  0  1  0  0  0  0  0  0
   92.9918  103.0682  -42.4642 H   0  0  0  1  0  1  0  0  0  0  0  0
   93.1530  101.3031  -42.7528 H   0  0  0  1  0  1  0  0  0  0  0  0
   90.6186  102.7641  -41.8796 H   0  0  0  1  0  1  0  0  0  0  0  0
   91.6786  101.7508  -40.8407 H   0  0  0  1  0  1  0  0  0  0  0  0
   90.7608  101.0002  -42.1906 H   0  0  0  1  0  1  0  0  0  0  0  0
   91.6026  104.4184  -43.9056 H   0  0  0  1  0  1  0  0  0  0  0  0
   90.1763  103.3266  -43.8694 H   0  0  0  1  0  1  0  0  0  0  0  0
   90.1296  104.7694  -45.8603 H   0  0  0  1  0  1  0  0  0  0  0  0
   90.3396  103.0486  -46.3278 H   0  0  0  1  0  1  0  0  0  0  0  0
   91.7463  104.1648  -46.3547 H   0  0  0  1  0  1  0  0  0  0  0  0
   92.6876   99.7454  -43.6396 H   0  0  0  1  0  1  0  0  0  0  0  0
   93.3718  100.2075  -45.2346 H   0  0  0  1  0  1  0  0  0  0  0  0
   91.6686   98.8910  -46.3961 H   0  0  0  1  0  1  0  0  0  0  0  0
   92.4999   97.8526  -45.1887 H   0  0  0  1  0  1  0  0  0  0  0  0
  1  6  1  0  0  0  0
  1  7  1  0  0  0  0
  1 18  1  0  0  0  0
  1 22  1  0  0  0  0
  2 12  1  0  0  0  0
  2 13  1  0  0  0  0
  2 15  1  0  0  0  0
  2 27  1  0  0  0  0
  3  5  2  0  0  0  0
  3  8  1  0  0  0  0
  3 20  1  0  0  0  0
  4  6  1  0  0  0  0
  4  8  2  0  0  0  0
  4 10  1  0  0  0  0
  5  9  1  0  0  0  0
  5 24  1  0  0  0  0
  6 25  1  0  0  0  0
  6 26  1  0  0  0  0
  7 11  1  0  0  0  0
  7 28  1  0  0  0  0
  7 29  1  0  0  0  0
  8 30  1  0  0  0  0
  9 10  2  0  0  0  0
  9 21  1  0  0  0  0
 10 19  1  0  0  0  0
 11 12  1  0  0  0  0
 11 31  1  0  0  0  0
 11 32  1  0  0  0  0
 12 17  1  0  0  0  0
 12 33  1  0  0  0  0
 13 14  1  0  0  0  0
 13 34  1  0  0  0  0
 13 35  1  0  0  0  0
 14 36  1  0  0  0  0
 14 37  1  0  0  0  0
 14 38  1  0  0  0  0
 15 16  1  0  0  0  0
 15 39  1  0  0  0  0
 15 40  1  0  0  0  0
 16 41  1  0  0  0  0
 16 42  1  0  0  0  0
 16 43  1  0  0  0  0
 17 18  1  0  0  0  0
 17 44  1  0  0  0  0
 17 45  1  0  0  0  0
 18 46  1  0  0  0  0
 18 47  1  0  0  0  0
 19 23  1  0  0  0  0
M  END
> <ConfScore>
-0.598968 

$$$$
4agm


 47 48  0  0  0  0  0  0  0  0999 V2000
   90.4980   98.3810  -44.6910 N   0  3  0  1  0  4  0  0  0  0  0  0
   92.0405  102.3576  -44.2461 N   0  3  0  1  0  4  0  0  0  0  0  0
   91.0477   93.5495  -45.0827 C   0  0  0  1  0  3  0  0  0  0  0  0
   90.4948   95.8988  -44.7838 C   0  0  0  1  0  3  0  0  0  0  0  0
   91.4685   93.4573  -43.7498 C   0  0  0  1  0  3  0  0  0  0  0  0
   89.9050   97.1660  -45.3350 C   0  0  0  1  0  4  0  0  0  0  0  0
   89.5430   99.5450  -44.7170 C   0  0  0  1  0  4  0  0  0  0  0  0
   90.5627   94.7613  -45.5982 C   0  0  0  1  0  3  0  0  0  0  0  0
   91.3956   94.6098  -42.9505 C   0  0  0  1  0  3  0  0  0  0  0  0
   90.9131   95.8428  -43.4281 C   0  0  0  1  0  3  0  0  0  0  0  0
   90.1750  100.7310  -44.0050 C   0  0  0  1  0  4  0  0  0  0  0  0
   91.4300  101.0810  -44.8020 C   0  0  0  1  0  4  0  0  0  0  0  0
   92.5073  102.1483  -42.8160 C   0  0  0  1  0  4  0  0  0  0  0  0
   91.3697  101.8632  -41.8507 C   0  0  0  1  0  4  0  0  0  0  0  0
   91.1057  103.5431  -44.3443 C   0  0  0  1  0  4  0  0  0  0  0  0
   90.7547  103.9139  -45.7790 C   0  0  0  1  0  4  0  0  0  0  0  0
   92.4510   99.9400  -44.6950 C   0  0  0  1  0  4  0  0  0  0  0  0
   91.8210   98.7070  -45.3220 C   0  0  0  1  0  4  0  0  0  0  0  0
   90.8496   96.9433  -42.6183 O   0  0  0  1  0  2  0  0  0  0  0  0
   91.1441   91.8435  -46.3322 I   0  0  0  1  0  1  0  0  0  0  0  0
   92.0408   94.4870  -40.9355 I   0  0  0  1  0  1  0  0  0  0  0  0
   90.6654   98.1803  -43.7171 H   0  0  0  1  0  1  0  0  0  0  0  0
   91.6345   97.4657  -42.7347 H   0  0  0  1  0  1  0  0  0  0  0  0
   91.8402   92.5224  -43.3465 H   0  0  0  1  0  1  0  0  0  0  0  0
   90.0976   97.2070  -46.4183 H   0  0  0  1  0  1  0  0  0  0  0  0
   88.8196   97.1614  -45.1549 H   0  0  0  1  0  1  0  0  0  0  0  0
   92.8530  102.5696  -44.8050 H   0  0  0  1  0  1  0  0  0  0  0  0
   88.6095   99.2654  -44.2068 H   0  0  0  1  0  1  0  0  0  0  0  0
   89.3242   99.8170  -45.7598 H   0  0  0  1  0  1  0  0  0  0  0  0
   90.2392   94.8172  -46.6316 H   0  0  0  1  0  1  0  0  0  0  0  0
   90.4413  100.4594  -42.9731 H   0  0  0  1  0  1  0  0  0  0  0  0
   89.4801  101.5838  -43.9926 H   0  0  0  1  0  1  0  0  0  0  0  0
   91.1614  101.2320  -45.8572 H   0  0  0  1  0  1  0  0  0  0  0  0
   93.0304  103.0570  -42.4809 H   0  0  0  1  0  1  0  0  0  0  0  0
   93.2038  101.2976  -42.7961 H   0  0  0  1  0  1  0  0  0  0  0  0
   90.8314  100.9601  -42.1755 H   0  0  0  1  0  1  0  0  0  0  0  0
   90.6771  102.7179  -41.8353 H   0  0  0  1  0  1  0  0  0  0  0  0
   91.7769  101.7034  -40.8407 H   0  0  0  1  0  1  0  0  0  0  0  0
   91.5885  104.4088  -43.8680 H   0  0  0  1  0  1  0  0  0  0  0  0
   90.1761  103.3001  -43.8083 H   0  0  0  1  0  1  0  0  0  0  0  0
   90.0606  104.7669  -45.7787 H   0  0  0  1  0  1  0  0  0  0  0  0
   90.2775  103.0546  -46.2734 H   0  0  0  1  0  1  0  0  0  0  0  0
   91.6704  104.1873  -46.3231 H   0  0  0  1  0  1  0  0  0  0  0  0
   92.6876   99.7454  -43.6396 H   0  0  0  1  0  1  0  0  0  0  0  0
   93.3718  100.2075  -45.2346 H   0  0  0  1  0  1  0  0  0  0  0  0
   91.6686   98.8910  -46.3961 H   0  0  0  1  0  1  0  0  0  0  0  0
   92.4999   97.8526  -45.1887 H   0  0  0  1  0  1  0  0  0  0  0  0
  1  6  1  0  0  0  0
  1  7  1  0  0  0  0
  1 18  1  0  0  0  0
  1 22  1  0  0  0  0
  2 12  1  0  0  0  0
  2 13  1  0  0  0  0
  2 15  1  0  0  0  0
  2 27  1  0  0  0  0
  3  5  2  0  0  0  0
  3  8  1  0  0  0  0
  3 20  1  0  0  0  0
  4  6  1  0  0  0  0
  4  8  2  0  0  0  0
  4 10  1  0  0  0  0
  5  9  1  0  0  0  0
  5 24  1  0  0  0  0
  6 25  1  0  0  0  0
  6 26  1  0  0  0  0
  7 11  1  0  0  0  0
  7 28  1  0  0  0  0
  7 29  1  0  0  0  0
  8 30  1  0  0  0  0
  9 10  2  0  0  0  0
  9 21  1  0  0  0  0
 10 19  1  0  0  0  0
 11 12  1  0  0  0  0
 11 31  1  0  0  0  0
 11 32  1  0  0  0  0
 12 17  1  0  0  0  0
 12 33  1  0  0  0  0
 13 14  1  0  0  0  0
 13 34  1  0  0  0  0
 13 35  1  0  0  0  0
 14 36  1  0  0  0  0
 14 37  1  0  0  0  0
 14 38  1  0  0  0  0
 15 16  1  0  0  0  0
 15 39  1  0  0  0  0
 15 40  1  0  0  0  0
 16 41  1  0  0  0  0
 16 42  1  0  0  0  0
 16 43  1  0  0  0  0
 17 18  1  0  0  0  0
 17 44  1  0  0  0  0
 17 45  1  0  0  0  0
 18 46  1  0  0  0  0
 18 47  1  0  0  0  0
 19 23  1  0  0  0  0
M  END
> <ConfScore>
-0.598968 

$$$$
4agm


 47 48  0  0  0  0  0  0  0  0999 V2000
   90.4980   98.3810  -44.6910 N   0  3  0  1  0  4  0  0  0  0  0  0
   92.0405  102.3576  -44.2461 N   0  3  0  1  0  4  0  0  0  0  0  0
   91.0477   93.5495  -45.0827 C   0  0  0  1  0  3  0  0  0  0  0  0
   90.4948   95.8988  -44.7838 C   0  0  0  1  0  3  0  0  0  0  0  0
   91.4685   93.4573  -43.7498 C   0  0  0  1  0  3  0  0  0  0  0  0
   89.9050   97.1660  -45.3350 C   0  0  0  1  0  4  0  0  0  0  0  0
   89.5430   99.5450  -44.7170 C   0  0  0  1  0  4  0  0  0  0  0  0
   90.5627   94.7613  -45.5982 C   0  0  0  1  0  3  0  0  0  0  0  0
   91.3956   94.6098  -42.9505 C   0  0  0  1  0  3  0  0  0  0  0  0
   90.9131   95.8428  -43.4281 C   0  0  0  1  0  3  0  0  0  0  0  0
   90.1750  100.7310  -44.0050 C   0  0  0  1  0  4  0  0  0  0  0  0
   91.4300  101.0810  -44.8020 C   0  0  0  1  0  4  0  0  0  0  0  0
   93.2760  102.7484  -45.0383 C   0  0  0  1  0  4  0  0  0  0  0  0
   94.4124  101.7492  -44.9066 C   0  0  0  1  0  4  0  0  0  0  0  0
   92.3508  102.2613  -42.7684 C   0  0  0  1  0  4  0  0  0  0  0  0
   91.1385  101.8952  -41.9227 C   0  0  0  1  0  4  0  0  0  0  0  0
   92.4510   99.9400  -44.6950 C   0  0  0  1  0  4  0  0  0  0  0  0
   91.8210   98.7070  -45.3220 C   0  0  0  1  0  4  0  0  0  0  0  0
   90.8496   96.9433  -42.6183 O   0  0  0  1  0  2  0  0  0  0  0  0
   91.1441   91.8435  -46.3322 I   0  0  0  1  0  1  0  0  0  0  0  0
   92.0408   94.4870  -40.9355 I   0  0  0  1  0  1  0  0  0  0  0  0
   90.6654   98.1803  -43.7171 H   0  0  0  1  0  1  0  0  0  0  0  0
   91.6345   97.4657  -42.7347 H   0  0  0  1  0  1  0  0  0  0  0  0
   91.8402   92.5224  -43.3465 H   0  0  0  1  0  1  0  0  0  0  0  0
   90.0976   97.2070  -46.4183 H   0  0  0  1  0  1  0  0  0  0  0  0
   88.8196   97.1614  -45.1549 H   0  0  0  1  0  1  0  0  0  0  0  0
   91.3582  103.0915  -44.3618 H   0  0  0  1  0  1  0  0  0  0  0  0
   88.6095   99.2654  -44.2068 H   0  0  0  1  0  1  0  0  0  0  0  0
   89.3242   99.8170  -45.7598 H   0  0  0  1  0  1  0  0  0  0  0  0
   90.2392   94.8172  -46.6316 H   0  0  0  1  0  1  0  0  0  0  0  0
   90.4413  100.4594  -42.9731 H   0  0  0  1  0  1  0  0  0  0  0  0
   89.4801  101.5838  -43.9926 H   0  0  0  1  0  1  0  0  0  0  0  0
   91.1614  101.2320  -45.8572 H   0  0  0  1  0  1  0  0  0  0  0  0
   93.6282  103.7275  -44.6791 H   0  0  0  1  0  1  0  0  0  0  0  0
   93.0008  102.8264  -46.1001 H   0  0  0  1  0  1  0  0  0  0  0  0
   94.7187  101.6797  -43.8520 H   0  0  0  1  0  1  0  0  0  0  0  0
   95.2664  102.0808  -45.5159 H   0  0  0  1  0  1  0  0  0  0  0  0
   94.0749  100.7616  -45.2558 H   0  0  0  1  0  1  0  0  0  0  0  0
   92.7331  103.2346  -42.4278 H   0  0  0  1  0  1  0  0  0  0  0  0
   93.1238  101.4920  -42.6233 H   0  0  0  1  0  1  0  0  0  0  0  0
   91.4355  101.8234  -40.8663 H   0  0  0  1  0  1  0  0  0  0  0  0
   90.7379  100.9263  -42.2564 H   0  0  0  1  0  1  0  0  0  0  0  0
   90.3649  102.6689  -42.0338 H   0  0  0  1  0  1  0  0  0  0  0  0
   92.6876   99.7454  -43.6396 H   0  0  0  1  0  1  0  0  0  0  0  0
   93.3718  100.2075  -45.2346 H   0  0  0  1  0  1  0  0  0  0  0  0
   91.6686   98.8910  -46.3961 H   0  0  0  1  0  1  0  0  0  0  0  0
   92.4999   97.8526  -45.1887 H   0  0  0  1  0  1  0  0  0  0  0  0
  1  6  1  0  0  0  0
  1  7  1  0  0  0  0
  1 18  1  0  0  0  0
  1 22  1  0  0  0  0
  2 12  1  0  0  0  0
  2 13  1  0  0  0  0
  2 15  1  0  0  0  0
  2 27  1  0  0  0  0
  3  5  2  0  0  0  0
  3  8  1  0  0  0  0
  3 20  1  0  0  0  0
  4  6  1  0  0  0  0
  4  8  2  0  0  0  0
  4 10  1  0  0  0  0
  5  9  1  0  0  0  0
  5 24  1  0  0  0  0
  6 25  1  0  0  0  0
  6 26  1  0  0  0  0
  7 11  1  0  0  0  0
  7 28  1  0  0  0  0
  7 29  1  0  0  0  0
  8 30  1  0  0  0  0
  9 10  2  0  0  0  0
  9 21  1  0  0  0  0
 10 19  1  0  0  0  0
 11 12  1  0  0  0  0
 11 31  1  0  0  0  0
 11 32  1  0  0  0  0
 12 17  1  0  0  0  0
 12 33  1  0  0  0  0
 13 14  1  0  0  0  0
 13 34  1  0  0  0  0
 13 35  1  0  0  0  0
 14 36  1  0  0  0  0
 14 37  1  0  0  0  0
 14 38  1  0  0  0  0
 15 16  1  0  0  0  0
 15 39  1  0  0  0  0
 15 40  1  0  0  0  0
 16 41  1  0  0  0  0
 16 42  1  0  0  0  0
 16 43  1  0  0  0  0
 17 18  1  0  0  0  0
 17 44  1  0  0  0  0
 17 45  1  0  0  0  0
 18 46  1  0  0  0  0
 18 47  1  0  0  0  0
 19 23  1  0  0  0  0
M  END
> <ConfScore>
-0.59802 

$$$$
4agm


 47 48  0  0  0  0  0  0  0  0999 V2000
   90.4980   98.3810  -44.6910 N   0  3  0  1  0  4  0  0  0  0  0  0
   92.0405  102.3576  -44.2461 N   0  3  0  1  0  4  0  0  0  0  0  0
   91.4017   97.4258  -48.8193 C   0  0  0  1  0  3  0  0  0  0  0  0
   90.0146   97.2191  -46.8325 C   0  0  0  1  0  3  0  0  0  0  0  0
   90.2638   97.4595  -49.6358 C   0  0  0  1  0  3  0  0  0  0  0  0
   89.9050   97.1660  -45.3350 C   0  0  0  1  0  4  0  0  0  0  0  0
   89.5430   99.5450  -44.7170 C   0  0  0  1  0  4  0  0  0  0  0  0
   91.2801   97.3073  -47.4264 C   0  0  0  1  0  3  0  0  0  0  0  0
   89.0043   97.3664  -49.0215 C   0  0  0  1  0  3  0  0  0  0  0  0
   88.8392   97.2495  -47.6286 C   0  0  0  1  0  3  0  0  0  0  0  0
   90.1750  100.7310  -44.0050 C   0  0  0  1  0  4  0  0  0  0  0  0
   91.4300  101.0810  -44.8020 C   0  0  0  1  0  4  0  0  0  0  0  0
   92.4619  102.1630  -42.7999 C   0  0  0  1  0  4  0  0  0  0  0  0
   93.4386  101.0152  -42.6103 C   0  0  0  1  0  4  0  0  0  0  0  0
   91.1247  103.5534  -44.3887 C   0  0  0  1  0  4  0  0  0  0  0  0
   90.6903  103.8092  -45.8257 C   0  0  0  1  0  4  0  0  0  0  0  0
   92.4510   99.9400  -44.6950 C   0  0  0  1  0  4  0  0  0  0  0  0
   91.8210   98.7070  -45.3220 C   0  0  0  1  0  4  0  0  0  0  0  0
   87.5959   97.1684  -47.0642 O   0  0  0  1  0  2  0  0  0  0  0  0
   93.3242   97.5550  -49.6958 I   0  0  0  1  0  1  0  0  0  0  0  0
   87.2752   97.4037  -50.2464 I   0  0  0  1  0  1  0  0  0  0  0  0
   90.6654   98.1803  -43.7171 H   0  0  0  1  0  1  0  0  0  0  0  0
   87.3664   96.2552  -46.9377 H   0  0  0  1  0  1  0  0  0  0  0  0
   90.3531   97.5547  -50.7118 H   0  0  0  1  0  1  0  0  0  0  0  0
   88.8415   97.0988  -45.0577 H   0  0  0  1  0  1  0  0  0  0  0  0
   90.4367   96.2744  -44.9704 H   0  0  0  1  0  1  0  0  0  0  0  0
   92.8720  102.5512  -44.7835 H   0  0  0  1  0  1  0  0  0  0  0  0
   88.6095   99.2654  -44.2068 H   0  0  0  1  0  1  0  0  0  0  0  0
   89.3242   99.8170  -45.7598 H   0  0  0  1  0  1  0  0  0  0  0  0
   92.1697   97.2840  -46.8070 H   0  0  0  1  0  1  0  0  0  0  0  0
   90.4413  100.4594  -42.9731 H   0  0  0  1  0  1  0  0  0  0  0  0
   89.4801  101.5838  -43.9926 H   0  0  0  1  0  1  0  0  0  0  0  0
   91.1614  101.2320  -45.8572 H   0  0  0  1  0  1  0  0  0  0  0  0
   91.5637  101.9607  -42.1967 H   0  0  0  1  0  1  0  0  0  0  0  0
   92.9383  103.0890  -42.4465 H   0  0  0  1  0  1  0  0  0  0  0  0
   92.9667  100.0754  -42.9341 H   0  0  0  1  0  1  0  0  0  0  0  0
   93.7162  100.9399  -41.5483 H   0  0  0  1  0  1  0  0  0  0  0  0
   94.3413  101.1983  -43.2127 H   0  0  0  1  0  1  0  0  0  0  0  0
   91.6537  104.4442  -44.0200 H   0  0  0  1  0  1  0  0  0  0  0  0
   90.2265  103.3802  -43.7774 H   0  0  0  1  0  1  0  0  0  0  0  0
   90.0145  104.6761  -45.8565 H   0  0  0  1  0  1  0  0  0  0  0  0
   90.1660  102.9230  -46.2135 H   0  0  0  1  0  1  0  0  0  0  0  0
   91.5748  104.0122  -46.4470 H   0  0  0  1  0  1  0  0  0  0  0  0
   92.6876   99.7454  -43.6396 H   0  0  0  1  0  1  0  0  0  0  0  0
   93.3718  100.2075  -45.2346 H   0  0  0  1  0  1  0  0  0  0  0  0
   91.6686   98.8910  -46.3961 H   0  0  0  1  0  1  0  0  0  0  0  0
   92.4999   97.8526  -45.1887 H   0  0  0  1  0  1  0  0  0  0  0  0
  1  6  1  0  0  0  0
  1  7  1  0  0  0  0
  1 18  1  0  0  0  0
  1 22  1  0  0  0  0
  2 12  1  0  0  0  0
  2 13  1  0  0  0  0
  2 15  1  0  0  0  0
  2 27  1  0  0  0  0
  3  5  2  0  0  0  0
  3  8  1  0  0  0  0
  3 20  1  0  0  0  0
  4  6  1  0  0  0  0
  4  8  2  0  0  0  0
  4 10  1  0  0  0  0
  5  9  1  0  0  0  0
  5 24  1  0  0  0  0
  6 25  1  0  0  0  0
  6 26  1  0  0  0  0
  7 11  1  0  0  0  0
  7 28  1  0  0  0  0
  7 29  1  0  0  0  0
  8 30  1  0  0  0  0
  9 10  2  0  0  0  0
  9 21  1  0  0  0  0
 10 19  1  0  0  0  0
 11 12  1  0  0  0  0
 11 31  1  0  0  0  0
 11 32  1  0  0  0  0
 12 17  1  0  0  0  0
 12 33  1  0  0  0  0
 13 14  1  0  0  0  0
 13 34  1  0  0  0  0
 13 35  1  0  0  0  0
 14 36  1  0  0  0  0
 14 37  1  0  0  0  0
 14 38  1  0  0  0  0
 15 16  1  0  0  0  0
 15 39  1  0  0  0  0
 15 40  1  0  0  0  0
 16 41  1  0  0  0  0
 16 42  1  0  0  0  0
 16 43  1  0  0  0  0
 17 18  1  0  0  0  0
 17 44  1  0  0  0  0
 17 45  1  0  0  0  0
 18 46  1  0  0  0  0
 18 47  1  0  0  0  0
 19 23  1  0  0  0  0
M  END
> <ConfScore>
-0.584901 

$$$$
4agm


 47 48  0  0  0  0  0  0  0  0999 V2000
   90.4980   98.3810  -44.6910 N   0  3  0  1  0  4  0  0  0  0  0  0
   92.0405  102.3576  -44.2461 N   0  3  0  1  0  4  0  0  0  0  0  0
   91.4017   97.4258  -48.8193 C   0  0  0  1  0  3  0  0  0  0  0  0
   90.0146   97.2191  -46.8325 C   0  0  0  1  0  3  0  0  0  0  0  0
   90.2638   97.4595  -49.6358 C   0  0  0  1  0  3  0  0  0  0  0  0
   89.9050   97.1660  -45.3350 C   0  0  0  1  0  4  0  0  0  0  0  0
   89.5430   99.5450  -44.7170 C   0  0  0  1  0  4  0  0  0  0  0  0
   91.2801   97.3073  -47.4264 C   0  0  0  1  0  3  0  0  0  0  0  0
   89.0043   97.3664  -49.0215 C   0  0  0  1  0  3  0  0  0  0  0  0
   88.8392   97.2495  -47.6286 C   0  0  0  1  0  3  0  0  0  0  0  0
   90.1750  100.7310  -44.0050 C   0  0  0  1  0  4  0  0  0  0  0  0
   91.4300  101.0810  -44.8020 C   0  0  0  1  0  4  0  0  0  0  0  0
   93.2760  102.7484  -45.0383 C   0  0  0  1  0  4  0  0  0  0  0  0
   93.0041  102.9266  -46.5221 C   0  0  0  1  0  4  0  0  0  0  0  0
   92.3508  102.2613  -42.7684 C   0  0  0  1  0  4  0  0  0  0  0  0
   91.1385  101.8952  -41.9227 C   0  0  0  1  0  4  0  0  0  0  0  0
   92.4510   99.9400  -44.6950 C   0  0  0  1  0  4  0  0  0  0  0  0
   91.8210   98.7070  -45.3220 C   0  0  0  1  0  4  0  0  0  0  0  0
   87.5959   97.1684  -47.0642 O   0  0  0  1  0  2  0  0  0  0  0  0
   93.3242   97.5550  -49.6958 I   0  0  0  1  0  1  0  0  0  0  0  0
   87.2752   97.4037  -50.2464 I   0  0  0  1  0  1  0  0  0  0  0  0
   90.6654   98.1803  -43.7171 H   0  0  0  1  0  1  0  0  0  0  0  0
   87.3664   96.2552  -46.9377 H   0  0  0  1  0  1  0  0  0  0  0  0
   90.3531   97.5547  -50.7118 H   0  0  0  1  0  1  0  0  0  0  0  0
   88.8415   97.0988  -45.0577 H   0  0  0  1  0  1  0  0  0  0  0  0
   90.4367   96.2744  -44.9704 H   0  0  0  1  0  1  0  0  0  0  0  0
   91.3582  103.0915  -44.3618 H   0  0  0  1  0  1  0  0  0  0  0  0
   88.6095   99.2654  -44.2068 H   0  0  0  1  0  1  0  0  0  0  0  0
   89.3242   99.8170  -45.7598 H   0  0  0  1  0  1  0  0  0  0  0  0
   92.1697   97.2840  -46.8070 H   0  0  0  1  0  1  0  0  0  0  0  0
   90.4413  100.4594  -42.9731 H   0  0  0  1  0  1  0  0  0  0  0  0
   89.4801  101.5838  -43.9926 H   0  0  0  1  0  1  0  0  0  0  0  0
   91.1614  101.2320  -45.8572 H   0  0  0  1  0  1  0  0  0  0  0  0
   94.0359  101.9618  -44.9144 H   0  0  0  1  0  1  0  0  0  0  0  0
   93.6631  103.6966  -44.6378 H   0  0  0  1  0  1  0  0  0  0  0  0
   92.6415  101.9774  -46.9446 H   0  0  0  1  0  1  0  0  0  0  0  0
   93.9316  103.2254  -47.0329 H   0  0  0  1  0  1  0  0  0  0  0  0
   92.2402  103.7061  -46.6641 H   0  0  0  1  0  1  0  0  0  0  0  0
   92.7331  103.2346  -42.4278 H   0  0  0  1  0  1  0  0  0  0  0  0
   93.1238  101.4920  -42.6233 H   0  0  0  1  0  1  0  0  0  0  0  0
   91.4355  101.8234  -40.8663 H   0  0  0  1  0  1  0  0  0  0  0  0
   90.7379  100.9263  -42.2564 H   0  0  0  1  0  1  0  0  0  0  0  0
   90.3649  102.6689  -42.0338 H   0  0  0  1  0  1  0  0  0  0  0  0
   92.6876   99.7454  -43.6396 H   0  0  0  1  0  1  0  0  0  0  0  0
   93.3718  100.2075  -45.2346 H   0  0  0  1  0  1  0  0  0  0  0  0
   91.6686   98.8910  -46.3961 H   0  0  0  1  0  1  0  0  0  0  0  0
   92.4999   97.8526  -45.1887 H   0  0  0  1  0  1  0  0  0  0  0  0
  1  6  1  0  0  0  0
  1  7  1  0  0  0  0
  1 18  1  0  0  0  0
  1 22  1  0  0  0  0
  2 12  1  0  0  0  0
  2 13  1  0  0  0  0
  2 15  1  0  0  0  0
  2 27  1  0  0  0  0
  3  5  2  0  0  0  0
  3  8  1  0  0  0  0
  3 20  1  0  0  0  0
  4  6  1  0  0  0  0
  4  8  2  0  0  0  0
  4 10  1  0  0  0  0
  5  9  1  0  0  0  0
  5 24  1  0  0  0  0
  6 25  1  0  0  0  0
  6 26  1  0  0  0  0
  7 11  1  0  0  0  0
  7 28  1  0  0  0  0
  7 29  1  0  0  0  0
  8 30  1  0  0  0  0
  9 10  2  0  0  0  0
  9 21  1  0  0  0  0
 10 19  1  0  0  0  0
 11 12  1  0  0  0  0
 11 31  1  0  0  0  0
 11 32  1  0  0  0  0
 12 17  1  0  0  0  0
 12 33  1  0  0  0  0
 13 14  1  0  0  0  0
 13 34  1  0  0  0  0
 13 35  1  0  0  0  0
 14 36  1  0  0  0  0
 14 37  1  0  0  0  0
 14 38  1  0  0  0  0
 15 16  1  0  0  0  0
 15 39  1  0  0  0  0
 15 40  1  0  0  0  0
 16 41  1  0  0  0  0
 16 42  1  0  0  0  0
 16 43  1  0  0  0  0
 17 18  1  0  0  0  0
 17 44  1  0  0  0  0
 17 45  1  0  0  0  0
 18 46  1  0  0  0  0
 18 47  1  0  0  0  0
 19 23  1  0  0  0  0
M  END
> <ConfScore>
-0.583954 

$$$$
4agm


 47 48  0  0  0  0  0  0  0  0999 V2000
   90.4980   98.3810  -44.6910 N   0  3  0  1  0  4  0  0  0  0  0  0
   92.0405  102.3576  -44.2461 N   0  3  0  1  0  4  0  0  0  0  0  0
   91.3387   96.7280  -48.8280 C   0  0  0  1  0  3  0  0  0  0  0  0
   90.0361   97.2078  -46.8311 C   0  0  0  1  0  3  0  0  0  0  0  0
   90.3931   97.3830  -49.6276 C   0  0  0  1  0  3  0  0  0  0  0  0
   89.9050   97.1660  -45.3350 C   0  0  0  1  0  4  0  0  0  0  0  0
   89.5430   99.5450  -44.7170 C   0  0  0  1  0  4  0  0  0  0  0  0
   91.1637   96.6407  -47.4384 C   0  0  0  1  0  3  0  0  0  0  0  0
   89.2679   97.9422  -49.0002 C   0  0  0  1  0  3  0  0  0  0  0  0
   89.0568   97.8789  -47.6100 C   0  0  0  1  0  3  0  0  0  0  0  0
   90.1750  100.7310  -44.0050 C   0  0  0  1  0  4  0  0  0  0  0  0
   91.4300  101.0810  -44.8020 C   0  0  0  1  0  4  0  0  0  0  0  0
   91.0627  103.5137  -44.3648 C   0  0  0  1  0  4  0  0  0  0  0  0
   89.7362  103.2491  -43.6737 C   0  0  0  1  0  4  0  0  0  0  0  0
   93.3664  102.6994  -44.8897 C   0  0  0  1  0  4  0  0  0  0  0  0
   94.4437  101.6528  -44.6381 C   0  0  0  1  0  4  0  0  0  0  0  0
   92.4510   99.9400  -44.6950 C   0  0  0  1  0  4  0  0  0  0  0  0
   91.8210   98.7070  -45.3220 C   0  0  0  1  0  4  0  0  0  0  0  0
   87.9520   98.4416  -47.0323 O   0  0  0  1  0  2  0  0  0  0  0  0
   93.0490   95.8613  -49.7250 I   0  0  0  1  0  1  0  0  0  0  0  0
   87.8237   98.9251  -50.1999 I   0  0  0  1  0  1  0  0  0  0  0  0
   90.6654   98.1803  -43.7171 H   0  0  0  1  0  1  0  0  0  0  0  0
   87.2767   97.7806  -46.9341 H   0  0  0  1  0  1  0  0  0  0  0  0
   90.5262   97.4561  -50.7008 H   0  0  0  1  0  1  0  0  0  0  0  0
   88.8372   97.1087  -45.0723 H   0  0  0  1  0  1  0  0  0  0  0  0
   90.4247   96.2730  -44.9568 H   0  0  0  1  0  1  0  0  0  0  0  0
   92.2147  102.2040  -43.2644 H   0  0  0  1  0  1  0  0  0  0  0  0
   88.6095   99.2654  -44.2068 H   0  0  0  1  0  1  0  0  0  0  0  0
   89.3242   99.8170  -45.7598 H   0  0  0  1  0  1  0  0  0  0  0  0
   91.9047   96.1318  -46.8320 H   0  0  0  1  0  1  0  0  0  0  0  0
   90.4413  100.4594  -42.9731 H   0  0  0  1  0  1  0  0  0  0  0  0
   89.4801  101.5838  -43.9926 H   0  0  0  1  0  1  0  0  0  0  0  0
   91.1614  101.2320  -45.8572 H   0  0  0  1  0  1  0  0  0  0  0  0
   90.8693  103.7017  -45.4320 H   0  0  0  1  0  1  0  0  0  0  0  0
   91.5197  104.4064  -43.9136 H   0  0  0  1  0  1  0  0  0  0  0  0
   89.2523  102.3738  -44.1326 H   0  0  0  1  0  1  0  0  0  0  0  0
   89.0834  104.1281  -43.7814 H   0  0  0  1  0  1  0  0  0  0  0  0
   89.9120  103.0521  -42.6053 H   0  0  0  1  0  1  0  0  0  0  0  0
   93.7131  103.6615  -44.4853 H   0  0  0  1  0  1  0  0  0  0  0  0
   93.2143  102.7908  -45.9754 H   0  0  0  1  0  1  0  0  0  0  0  0
   95.3719  101.9514  -45.1465 H   0  0  0  1  0  1  0  0  0  0  0  0
   94.1089  100.6807  -45.0298 H   0  0  0  1  0  1  0  0  0  0  0  0
   94.6292  101.5679  -43.5575 H   0  0  0  1  0  1  0  0  0  0  0  0
   92.6876   99.7454  -43.6396 H   0  0  0  1  0  1  0  0  0  0  0  0
   93.3718  100.2075  -45.2346 H   0  0  0  1  0  1  0  0  0  0  0  0
   91.6686   98.8910  -46.3961 H   0  0  0  1  0  1  0  0  0  0  0  0
   92.4999   97.8526  -45.1887 H   0  0  0  1  0  1  0  0  0  0  0  0
  1  6  1  0  0  0  0
  1  7  1  0  0  0  0
  1 18  1  0  0  0  0
  1 22  1  0  0  0  0
  2 12  1  0  0  0  0
  2 13  1  0  0  0  0
  2 15  1  0  0  0  0
  2 27  1  0  0  0  0
  3  5  2  0  0  0  0
  3  8  1  0  0  0  0
  3 20  1  0  0  0  0
  4  6  1  0  0  0  0
  4  8  2  0  0  0  0
  4 10  1  0  0  0  0
  5  9  1  0  0  0  0
  5 24  1  0  0  0  0
  6 25  1  0  0  0  0
  6 26  1  0  0  0  0
  7 11  1  0  0  0  0
  7 28  1  0  0  0  0
  7 29  1  0  0  0  0
  8 30  1  0  0  0  0
  9 10  2  0  0  0  0
  9 21  1  0  0  0  0
 10 19  1  0  0  0  0
 11 12  1  0  0  0  0
 11 31  1  0  0  0  0
 11 32  1  0  0  0  0
 12 17  1  0  0  0  0
 12 33  1  0  0  0  0
 13 14  1  0  0  0  0
 13 34  1  0  0  0  0
 13 35  1  0  0  0  0
 14 36  1  0  0  0  0
 14 37  1  0  0  0  0
 14 38  1  0  0  0  0
 15 16  1  0  0  0  0
 15 39  1  0  0  0  0
 15 40  1  0  0  0  0
 16 41  1  0  0  0  0
 16 42  1  0  0  0  0
 16 43  1  0  0  0  0
 17 18  1  0  0  0  0
 17 44  1  0  0  0  0
 17 45  1  0  0  0  0
 18 46  1  0  0  0  0
 18 47  1  0  0  0  0
 19 23  1  0  0  0  0
M  END
> <ConfScore>
-0.571475 

$$$$
4agm


 47 48  0  0  0  0  0  0  0  0999 V2000
   90.4980   98.3810  -44.6910 N   0  3  0  1  0  4  0  0  0  0  0  0
   92.0405  102.3576  -44.2461 N   0  3  0  1  0  4  0  0  0  0  0  0
   90.9135   96.2962  -48.8951 C   0  0  0  1  0  3  0  0  0  0  0  0
   90.0146   97.2191  -46.8325 C   0  0  0  1  0  3  0  0  0  0  0  0
   90.3634   97.3527  -49.6323 C   0  0  0  1  0  3  0  0  0  0  0  0
   89.9050   97.1660  -45.3350 C   0  0  0  1  0  4  0  0  0  0  0  0
   89.5430   99.5450  -44.7170 C   0  0  0  1  0  4  0  0  0  0  0  0
   90.7422   96.2283  -47.5040 C   0  0  0  1  0  3  0  0  0  0  0  0
   89.6346   98.3343  -48.9411 C   0  0  0  1  0  3  0  0  0  0  0  0
   89.4423   98.3045  -47.5470 C   0  0  0  1  0  3  0  0  0  0  0  0
   90.1750  100.7310  -44.0050 C   0  0  0  1  0  4  0  0  0  0  0  0
   91.4300  101.0810  -44.8020 C   0  0  0  1  0  4  0  0  0  0  0  0
   91.0627  103.5137  -44.3648 C   0  0  0  1  0  4  0  0  0  0  0  0
   89.7743  103.2897  -43.5920 C   0  0  0  1  0  4  0  0  0  0  0  0
   93.3664  102.6994  -44.8897 C   0  0  0  1  0  4  0  0  0  0  0  0
   93.2814  102.8364  -46.4040 C   0  0  0  1  0  4  0  0  0  0  0  0
   92.4510   99.9400  -44.6950 C   0  0  0  1  0  4  0  0  0  0  0  0
   91.8210   98.7070  -45.3220 C   0  0  0  1  0  4  0  0  0  0  0  0
   88.7323   99.2823  -46.9061 O   0  0  0  1  0  2  0  0  0  0  0  0
   92.0146   94.7865  -49.8898 I   0  0  0  1  0  1  0  0  0  0  0  0
   88.7866   99.9315  -50.0461 I   0  0  0  1  0  1  0  0  0  0  0  0
   90.6654   98.1803  -43.7171 H   0  0  0  1  0  1  0  0  0  0  0  0
   88.9393   99.2655  -45.9790 H   0  0  0  1  0  1  0  0  0  0  0  0
   90.4965   97.4111  -50.7064 H   0  0  0  1  0  1  0  0  0  0  0  0
   88.8415   97.0988  -45.0577 H   0  0  0  1  0  1  0  0  0  0  0  0
   90.4367   96.2744  -44.9704 H   0  0  0  1  0  1  0  0  0  0  0  0
   92.2147  102.2040  -43.2644 H   0  0  0  1  0  1  0  0  0  0  0  0
   88.6095   99.2654  -44.2068 H   0  0  0  1  0  1  0  0  0  0  0  0
   89.3242   99.8170  -45.7598 H   0  0  0  1  0  1  0  0  0  0  0  0
   91.1750   95.4052  -46.9464 H   0  0  0  1  0  1  0  0  0  0  0  0
   90.4413  100.4594  -42.9731 H   0  0  0  1  0  1  0  0  0  0  0  0
   89.4801  101.5838  -43.9926 H   0  0  0  1  0  1  0  0  0  0  0  0
   91.1614  101.2320  -45.8572 H   0  0  0  1  0  1  0  0  0  0  0  0
   90.8127  103.6543  -45.4275 H   0  0  0  1  0  1  0  0  0  0  0  0
   91.5472  104.4228  -43.9802 H   0  0  0  1  0  1  0  0  0  0  0  0
   90.0073  103.1405  -42.5269 H   0  0  0  1  0  1  0  0  0  0  0  0
   89.2603  102.3994  -43.9837 H   0  0  0  1  0  1  0  0  0  0  0  0
   89.1216  104.1687  -43.7044 H   0  0  0  1  0  1  0  0  0  0  0  0
   94.0860  101.9028  -44.6510 H   0  0  0  1  0  1  0  0  0  0  0  0
   93.7220  103.6529  -44.4716 H   0  0  0  1  0  1  0  0  0  0  0  0
   94.2700  103.1030  -46.8049 H   0  0  0  1  0  1  0  0  0  0  0  0
   92.5582  103.6249  -46.6607 H   0  0  0  1  0  1  0  0  0  0  0  0
   92.9537  101.8824  -46.8421 H   0  0  0  1  0  1  0  0  0  0  0  0
   92.6876   99.7454  -43.6396 H   0  0  0  1  0  1  0  0  0  0  0  0
   93.3718  100.2075  -45.2346 H   0  0  0  1  0  1  0  0  0  0  0  0
   91.6686   98.8910  -46.3961 H   0  0  0  1  0  1  0  0  0  0  0  0
   92.4999   97.8526  -45.1887 H   0  0  0  1  0  1  0  0  0  0  0  0
  1  6  1  0  0  0  0
  1  7  1  0  0  0  0
  1 18  1  0  0  0  0
  1 22  1  0  0  0  0
  2 12  1  0  0  0  0
  2 13  1  0  0  0  0
  2 15  1  0  0  0  0
  2 27  1  0  0  0  0
  3  5  2  0  0  0  0
  3  8  1  0  0  0  0
  3 20  1  0  0  0  0
  4  6  1  0  0  0  0
  4  8  2  0  0  0  0
  4 10  1  0  0  0  0
  5  9  1  0  0  0  0
  5 24  1  0  0  0  0
  6 25  1  0  0  0  0
  6 26  1  0  0  0  0
  7 11  1  0  0  0  0
  7 28  1  0  0  0  0
  7 29  1  0  0  0  0
  8 30  1  0  0  0  0
  9 10  2  0  0  0  0
  9 21  1  0  0  0  0
 10 19  1  0  0  0  0
 11 12  1  0  0  0  0
 11 31  1  0  0  0  0
 11 32  1  0  0  0  0
 12 17  1  0  0  0  0
 12 33  1  0  0  0  0
 13 14  1  0  0  0  0
 13 34  1  0  0  0  0
 13 35  1  0  0  0  0
 14 36  1  0  0  0  0
 14 37  1  0  0  0  0
 14 38  1  0  0  0  0
 15 16  1  0  0  0  0
 15 39  1  0  0  0  0
 15 40  1  0  0  0  0
 16 41  1  0  0  0  0
 16 42  1  0  0  0  0
 16 43  1  0  0  0  0
 17 18  1  0  0  0  0
 17 44  1  0  0  0  0
 17 45  1  0  0  0  0
 18 46  1  0  0  0  0
 18 47  1  0  0  0  0
 19 23  1  0  0  0  0
M  END
> <ConfScore>
-0.571312 

$$$$
4agm


 47 48  0  0  0  0  0  0  0  0999 V2000
   90.4980   98.3810  -44.6910 N   0  3  0  1  0  4  0  0  0  0  0  0
   92.0405  102.3576  -44.2461 N   0  3  0  1  0  4  0  0  0  0  0  0
   93.0643   95.0610  -45.1451 C   0  0  0  1  0  3  0  0  0  0  0  0
   90.8112   95.9735  -45.2160 C   0  0  0  1  0  3  0  0  0  0  0  0
   92.5575   93.7551  -45.1315 C   0  0  0  1  0  3  0  0  0  0  0  0
   89.9050   97.1660  -45.3350 C   0  0  0  1  0  4  0  0  0  0  0  0
   89.5430   99.5450  -44.7170 C   0  0  0  1  0  4  0  0  0  0  0  0
   92.1985   96.1645  -45.1880 C   0  0  0  1  0  3  0  0  0  0  0  0
   91.1637   93.5847  -45.1568 C   0  0  0  1  0  3  0  0  0  0  0  0
   90.2617   94.6643  -45.2029 C   0  0  0  1  0  3  0  0  0  0  0  0
   90.1750  100.7310  -44.0050 C   0  0  0  1  0  4  0  0  0  0  0  0
   91.4300  101.0810  -44.8020 C   0  0  0  1  0  4  0  0  0  0  0  0
   91.0627  103.5137  -44.3648 C   0  0  0  1  0  4  0  0  0  0  0  0
   90.7447  103.8834  -45.8034 C   0  0  0  1  0  4  0  0  0  0  0  0
   93.3664  102.6994  -44.8897 C   0  0  0  1  0  4  0  0  0  0  0  0
   94.4437  101.6528  -44.6381 C   0  0  0  1  0  4  0  0  0  0  0  0
   92.4510   99.9400  -44.6950 C   0  0  0  1  0  4  0  0  0  0  0  0
   91.8210   98.7070  -45.3220 C   0  0  0  1  0  4  0  0  0  0  0  0
   88.9096   94.4603  -45.2338 O   0  0  0  1  0  2  0  0  0  0  0  0
   95.1575   95.3729  -45.1005 I   0  0  0  1  0  1  0  0  0  0  0  0
   90.3838   91.6144  -45.1241 I   0  0  0  1  0  1  0  0  0  0  0  0
   90.6654   98.1803  -43.7171 H   0  0  0  1  0  1  0  0  0  0  0  0
   88.4792   95.2481  -45.5447 H   0  0  0  1  0  1  0  0  0  0  0  0
   93.2227   92.8998  -45.1022 H   0  0  0  1  0  1  0  0  0  0  0  0
   89.7316   97.3768  -46.4017 H   0  0  0  1  0  1  0  0  0  0  0  0
   88.9469   96.9354  -44.8458 H   0  0  0  1  0  1  0  0  0  0  0  0
   92.2147  102.2040  -43.2644 H   0  0  0  1  0  1  0  0  0  0  0  0
   88.6095   99.2654  -44.2068 H   0  0  0  1  0  1  0  0  0  0  0  0
   89.3242   99.8170  -45.7598 H   0  0  0  1  0  1  0  0  0  0  0  0
   92.6052   97.1696  -45.1994 H   0  0  0  1  0  1  0  0  0  0  0  0
   90.4413  100.4594  -42.9731 H   0  0  0  1  0  1  0  0  0  0  0  0
   89.4801  101.5838  -43.9926 H   0  0  0  1  0  1  0  0  0  0  0  0
   91.1614  101.2320  -45.8572 H   0  0  0  1  0  1  0  0  0  0  0  0
   91.4970  104.3935  -43.8658 H   0  0  0  1  0  1  0  0  0  0  0  0
   90.1263  103.2332  -43.8611 H   0  0  0  1  0  1  0  0  0  0  0  0
   91.6685  104.1933  -46.3147 H   0  0  0  1  0  1  0  0  0  0  0  0
   90.0207  104.7117  -45.8191 H   0  0  0  1  0  1  0  0  0  0  0  0
   90.3152  103.0116  -46.3199 H   0  0  0  1  0  1  0  0  0  0  0  0
   93.7131  103.6615  -44.4853 H   0  0  0  1  0  1  0  0  0  0  0  0
   93.2143  102.7908  -45.9754 H   0  0  0  1  0  1  0  0  0  0  0  0
   95.3719  101.9514  -45.1465 H   0  0  0  1  0  1  0  0  0  0  0  0
   94.1089  100.6807  -45.0298 H   0  0  0  1  0  1  0  0  0  0  0  0
   94.6292  101.5679  -43.5575 H   0  0  0  1  0  1  0  0  0  0  0  0
   92.6876   99.7454  -43.6396 H   0  0  0  1  0  1  0  0  0  0  0  0
   93.3718  100.2075  -45.2346 H   0  0  0  1  0  1  0  0  0  0  0  0
   91.6686   98.8910  -46.3961 H   0  0  0  1  0  1  0  0  0  0  0  0
   92.4999   97.8526  -45.1887 H   0  0  0  1  0  1  0  0  0  0  0  0
  1  6  1  0  0  0  0
  1  7  1  0  0  0  0
  1 18  1  0  0  0  0
  1 22  1  0  0  0  0
  2 12  1  0  0  0  0
  2 13  1  0  0  0  0
  2 15  1  0  0  0  0
  2 27  1  0  0  0  0
  3  5  2  0  0  0  0
  3  8  1  0  0  0  0
  3 20  1  0  0  0  0
  4  6  1  0  0  0  0
  4  8  2  0  0  0  0
  4 10  1  0  0  0  0
  5  9  1  0  0  0  0
  5 24  1  0  0  0  0
  6 25  1  0  0  0  0
  6 26  1  0  0  0  0
  7 11  1  0  0  0  0
  7 28  1  0  0  0  0
  7 29  1  0  0  0  0
  8 30  1  0  0  0  0
  9 10  2  0  0  0  0
  9 21  1  0  0  0  0
 10 19  1  0  0  0  0
 11 12  1  0  0  0  0
 11 31  1  0  0  0  0
 11 32  1  0  0  0  0
 12 17  1  0  0  0  0
 12 33  1  0  0  0  0
 13 14  1  0  0  0  0
 13 34  1  0  0  0  0
 13 35  1  0  0  0  0
 14 36  1  0  0  0  0
 14 37  1  0  0  0  0
 14 38  1  0  0  0  0
 15 16  1  0  0  0  0
 15 39  1  0  0  0  0
 15 40  1  0  0  0  0
 16 41  1  0  0  0  0
 16 42  1  0  0  0  0
 16 43  1  0  0  0  0
 17 18  1  0  0  0  0
 17 44  1  0  0  0  0
 17 45  1  0  0  0  0
 18 46  1  0  0  0  0
 18 47  1  0  0  0  0
 19 23  1  0  0  0  0
M  END
> <ConfScore>
-0.568373 

$$$$
4agm


 47 48  0  0  0  0  0  0  0  0999 V2000
   90.4980   98.3810  -44.6910 N   0  3  0  1  0  4  0  0  0  0  0  0
   92.0405  102.3576  -44.2461 N   0  3  0  1  0  4  0  0  0  0  0  0
   91.6447   94.7420  -42.9800 C   0  0  0  1  0  3  0  0  0  0  0  0
   90.4948   95.8988  -44.7838 C   0  0  0  1  0  3  0  0  0  0  0  0
   91.7368   93.5795  -43.7561 C   0  0  0  1  0  3  0  0  0  0  0  0
   89.9050   97.1660  -45.3350 C   0  0  0  1  0  4  0  0  0  0  0  0
   89.5430   99.5450  -44.7170 C   0  0  0  1  0  4  0  0  0  0  0  0
   91.0289   95.8957  -43.4890 C   0  0  0  1  0  3  0  0  0  0  0  0
   91.1924   93.6018  -45.0506 C   0  0  0  1  0  3  0  0  0  0  0  0
   90.5695   94.7387  -45.5990 C   0  0  0  1  0  3  0  0  0  0  0  0
   90.1750  100.7310  -44.0050 C   0  0  0  1  0  4  0  0  0  0  0  0
   91.4300  101.0810  -44.8020 C   0  0  0  1  0  4  0  0  0  0  0  0
   91.0627  103.5137  -44.3648 C   0  0  0  1  0  4  0  0  0  0  0  0
   89.7362  103.2491  -43.6737 C   0  0  0  1  0  4  0  0  0  0  0  0
   93.3664  102.6994  -44.8897 C   0  0  0  1  0  4  0  0  0  0  0  0
   94.4437  101.6528  -44.6381 C   0  0  0  1  0  4  0  0  0  0  0  0
   92.4510   99.9400  -44.6950 C   0  0  0  1  0  4  0  0  0  0  0  0
   91.8210   98.7070  -45.3220 C   0  0  0  1  0  4  0  0  0  0  0  0
   90.0566   94.7263  -46.8669 O   0  0  0  1  0  2  0  0  0  0  0  0
   92.4427   94.7587  -41.0194 I   0  0  0  1  0  1  0  0  0  0  0  0
   91.3142   91.8457  -46.2306 I   0  0  0  1  0  1  0  0  0  0  0  0
   90.6654   98.1803  -43.7171 H   0  0  0  1  0  1  0  0  0  0  0  0
   89.1302   94.5188  -46.8299 H   0  0  0  1  0  1  0  0  0  0  0  0
   92.2150   92.6874  -43.3684 H   0  0  0  1  0  1  0  0  0  0  0  0
   90.0976   97.2070  -46.4183 H   0  0  0  1  0  1  0  0  0  0  0  0
   88.8196   97.1614  -45.1549 H   0  0  0  1  0  1  0  0  0  0  0  0
   92.2147  102.2040  -43.2644 H   0  0  0  1  0  1  0  0  0  0  0  0
   88.6095   99.2654  -44.2068 H   0  0  0  1  0  1  0  0  0  0  0  0
   89.3242   99.8170  -45.7598 H   0  0  0  1  0  1  0  0  0  0  0  0
   90.9662   96.7886  -42.8771 H   0  0  0  1  0  1  0  0  0  0  0  0
   90.4413  100.4594  -42.9731 H   0  0  0  1  0  1  0  0  0  0  0  0
   89.4801  101.5838  -43.9926 H   0  0  0  1  0  1  0  0  0  0  0  0
   91.1614  101.2320  -45.8572 H   0  0  0  1  0  1  0  0  0  0  0  0
   90.8693  103.7017  -45.4320 H   0  0  0  1  0  1  0  0  0  0  0  0
   91.5197  104.4064  -43.9136 H   0  0  0  1  0  1  0  0  0  0  0  0
   89.2523  102.3738  -44.1326 H   0  0  0  1  0  1  0  0  0  0  0  0
   89.0834  104.1281  -43.7814 H   0  0  0  1  0  1  0  0  0  0  0  0
   89.9120  103.0521  -42.6053 H   0  0  0  1  0  1  0  0  0  0  0  0
   93.7131  103.6615  -44.4853 H   0  0  0  1  0  1  0  0  0  0  0  0
   93.2143  102.7908  -45.9754 H   0  0  0  1  0  1  0  0  0  0  0  0
   95.3719  101.9514  -45.1465 H   0  0  0  1  0  1  0  0  0  0  0  0
   94.1089  100.6807  -45.0298 H   0  0  0  1  0  1  0  0  0  0  0  0
   94.6292  101.5679  -43.5575 H   0  0  0  1  0  1  0  0  0  0  0  0
   92.6876   99.7454  -43.6396 H   0  0  0  1  0  1  0  0  0  0  0  0
   93.3718  100.2075  -45.2346 H   0  0  0  1  0  1  0  0  0  0  0  0
   91.6686   98.8910  -46.3961 H   0  0  0  1  0  1  0  0  0  0  0  0
   92.4999   97.8526  -45.1887 H   0  0  0  1  0  1  0  0  0  0  0  0
  1  6  1  0  0  0  0
  1  7  1  0  0  0  0
  1 18  1  0  0  0  0
  1 22  1  0  0  0  0
  2 12  1  0  0  0  0
  2 13  1  0  0  0  0
  2 15  1  0  0  0  0
  2 27  1  0  0  0  0
  3  5  2  0  0  0  0
  3  8  1  0  0  0  0
  3 20  1  0  0  0  0
  4  6  1  0  0  0  0
  4  8  2  0  0  0  0
  4 10  1  0  0  0  0
  5  9  1  0  0  0  0
  5 24  1  0  0  0  0
  6 25  1  0  0  0  0
  6 26  1  0  0  0  0
  7 11  1  0  0  0  0
  7 28  1  0  0  0  0
  7 29  1  0  0  0  0
  8 30  1  0  0  0  0
  9 10  2  0  0  0  0
  9 21  1  0  0  0  0
 10 19  1  0  0  0  0
 11 12  1  0  0  0  0
 11 31  1  0  0  0  0
 11 32  1  0  0  0  0
 12 17  1  0  0  0  0
 12 33  1  0  0  0  0
 13 14  1  0  0  0  0
 13 34  1  0  0  0  0
 13 35  1  0  0  0  0
 14 36  1  0  0  0  0
 14 37  1  0  0  0  0
 14 38  1  0  0  0  0
 15 16  1  0  0  0  0
 15 39  1  0  0  0  0
 15 40  1  0  0  0  0
 16 41  1  0  0  0  0
 16 42  1  0  0  0  0
 16 43  1  0  0  0  0
 17 18  1  0  0  0  0
 17 44  1  0  0  0  0
 17 45  1  0  0  0  0
 18 46  1  0  0  0  0
 18 47  1  0  0  0  0
 19 23  1  0  0  0  0
M  END
> <ConfScore>
-0.567085 

$$$$
4agm


 47 48  0  0  0  0  0  0  0  0999 V2000
   90.4980   98.3810  -44.6910 N   0  3  0  1  0  4  0  0  0  0  0  0
   92.0405  102.3576  -44.2461 N   0  3  0  1  0  4  0  0  0  0  0  0
   91.6447   94.7420  -42.9800 C   0  0  0  1  0  3  0  0  0  0  0  0
   90.4948   95.8988  -44.7838 C   0  0  0  1  0  3  0  0  0  0  0  0
   91.7368   93.5795  -43.7561 C   0  0  0  1  0  3  0  0  0  0  0  0
   89.9050   97.1660  -45.3350 C   0  0  0  1  0  4  0  0  0  0  0  0
   89.5430   99.5450  -44.7170 C   0  0  0  1  0  4  0  0  0  0  0  0
   91.0289   95.8957  -43.4890 C   0  0  0  1  0  3  0  0  0  0  0  0
   91.1924   93.6018  -45.0506 C   0  0  0  1  0  3  0  0  0  0  0  0
   90.5695   94.7387  -45.5990 C   0  0  0  1  0  3  0  0  0  0  0  0
   90.1750  100.7310  -44.0050 C   0  0  0  1  0  4  0  0  0  0  0  0
   91.4300  101.0810  -44.8020 C   0  0  0  1  0  4  0  0  0  0  0  0
   93.2599  102.7635  -45.0554 C   0  0  0  1  0  4  0  0  0  0  0  0
   92.9623  102.9513  -46.5330 C   0  0  0  1  0  4  0  0  0  0  0  0
   92.3758  102.2520  -42.7745 C   0  0  0  1  0  4  0  0  0  0  0  0
   91.1507  102.0532  -41.8921 C   0  0  0  1  0  4  0  0  0  0  0  0
   92.4510   99.9400  -44.6950 C   0  0  0  1  0  4  0  0  0  0  0  0
   91.8210   98.7070  -45.3220 C   0  0  0  1  0  4  0  0  0  0  0  0
   90.0566   94.7263  -46.8669 O   0  0  0  1  0  2  0  0  0  0  0  0
   92.4427   94.7587  -41.0194 I   0  0  0  1  0  1  0  0  0  0  0  0
   91.3142   91.8457  -46.2306 I   0  0  0  1  0  1  0  0  0  0  0  0
   90.6654   98.1803  -43.7171 H   0  0  0  1  0  1  0  0  0  0  0  0
   89.1302   94.5188  -46.8299 H   0  0  0  1  0  1  0  0  0  0  0  0
   92.2150   92.6874  -43.3684 H   0  0  0  1  0  1  0  0  0  0  0  0
   90.0976   97.2070  -46.4183 H   0  0  0  1  0  1  0  0  0  0  0  0
   88.8196   97.1614  -45.1549 H   0  0  0  1  0  1  0  0  0  0  0  0
   91.3512  103.0874  -44.3447 H   0  0  0  1  0  1  0  0  0  0  0  0
   88.6095   99.2654  -44.2068 H   0  0  0  1  0  1  0  0  0  0  0  0
   89.3242   99.8170  -45.7598 H   0  0  0  1  0  1  0  0  0  0  0  0
   90.9662   96.7886  -42.8771 H   0  0  0  1  0  1  0  0  0  0  0  0
   90.4413  100.4594  -42.9731 H   0  0  0  1  0  1  0  0  0  0  0  0
   89.4801  101.5838  -43.9926 H   0  0  0  1  0  1  0  0  0  0  0  0
   91.1614  101.2320  -45.8572 H   0  0  0  1  0  1  0  0  0  0  0  0
   94.0274  101.9815  -44.9502 H   0  0  0  1  0  1  0  0  0  0  0  0
   93.6469  103.7113  -44.6538 H   0  0  0  1  0  1  0  0  0  0  0  0
   92.2047  103.7396  -46.6568 H   0  0  0  1  0  1  0  0  0  0  0  0
   92.5835  102.0084  -46.9548 H   0  0  0  1  0  1  0  0  0  0  0  0
   93.8841  103.2435  -47.0587 H   0  0  0  1  0  1  0  0  0  0  0  0
   92.8828  103.1775  -42.4647 H   0  0  0  1  0  1  0  0  0  0  0  0
   93.0528  101.3967  -42.6311 H   0  0  0  1  0  1  0  0  0  0  0  0
   91.4646  101.9656  -40.8419 H   0  0  0  1  0  1  0  0  0  0  0  0
   90.6262  101.1346  -42.1947 H   0  0  0  1  0  1  0  0  0  0  0  0
   90.4746  102.9137  -42.0016 H   0  0  0  1  0  1  0  0  0  0  0  0
   92.6876   99.7454  -43.6396 H   0  0  0  1  0  1  0  0  0  0  0  0
   93.3718  100.2075  -45.2346 H   0  0  0  1  0  1  0  0  0  0  0  0
   91.6686   98.8910  -46.3961 H   0  0  0  1  0  1  0  0  0  0  0  0
   92.4999   97.8526  -45.1887 H   0  0  0  1  0  1  0  0  0  0  0  0
  1  6  1  0  0  0  0
  1  7  1  0  0  0  0
  1 18  1  0  0  0  0
  1 22  1  0  0  0  0
  2 12  1  0  0  0  0
  2 13  1  0  0  0  0
  2 15  1  0  0  0  0
  2 27  1  0  0  0  0
  3  5  2  0  0  0  0
  3  8  1  0  0  0  0
  3 20  1  0  0  0  0
  4  6  1  0  0  0  0
  4  8  2  0  0  0  0
  4 10  1  0  0  0  0
  5  9  1  0  0  0  0
  5 24  1  0  0  0  0
  6 25  1  0  0  0  0
  6 26  1  0  0  0  0
  7 11  1  0  0  0  0
  7 28  1  0  0  0  0
  7 29  1  0  0  0  0
  8 30  1  0  0  0  0
  9 10  2  0  0  0  0
  9 21  1  0  0  0  0
 10 19  1  0  0  0  0
 11 12  1  0  0  0  0
 11 31  1  0  0  0  0
 11 32  1  0  0  0  0
 12 17  1  0  0  0  0
 12 33  1  0  0  0  0
 13 14  1  0  0  0  0
 13 34  1  0  0  0  0
 13 35  1  0  0  0  0
 14 36  1  0  0  0  0
 14 37  1  0  0  0  0
 14 38  1  0  0  0  0
 15 16  1  0  0  0  0
 15 39  1  0  0  0  0
 15 40  1  0  0  0  0
 16 41  1  0  0  0  0
 16 42  1  0  0  0  0
 16 43  1  0  0  0  0
 17 18  1  0  0  0  0
 17 44  1  0  0  0  0
 17 45  1  0  0  0  0
 18 46  1  0  0  0  0
 18 47  1  0  0  0  0
 19 23  1  0  0  0  0
M  END
> <ConfScore>
-0.56471 

$$$$
4agm


 47 48  0  0  0  0  0  0  0  0999 V2000
   90.4980   98.3810  -44.6910 N   0  3  0  1  0  4  0  0  0  0  0  0
   92.0405  102.3576  -44.2461 N   0  3  0  1  0  4  0  0  0  0  0  0
   90.4023   94.1419  -43.0866 C   0  0  0  1  0  3  0  0  0  0  0  0
   90.4774   95.8983  -44.7669 C   0  0  0  1  0  3  0  0  0  0  0  0
   91.5927   93.5913  -43.5786 C   0  0  0  1  0  3  0  0  0  0  0  0
   89.9050   97.1660  -45.3350 C   0  0  0  1  0  4  0  0  0  0  0  0
   89.5430   99.5450  -44.7170 C   0  0  0  1  0  4  0  0  0  0  0  0
   89.8469   95.2885  -43.6748 C   0  0  0  1  0  3  0  0  0  0  0  0
   92.2077   94.2155  -44.6762 C   0  0  0  1  0  3  0  0  0  0  0  0
   91.6850   95.3679  -45.2926 C   0  0  0  1  0  3  0  0  0  0  0  0
   90.1750  100.7310  -44.0050 C   0  0  0  1  0  4  0  0  0  0  0  0
   91.4300  101.0810  -44.8020 C   0  0  0  1  0  4  0  0  0  0  0  0
   91.0627  103.5137  -44.3648 C   0  0  0  1  0  4  0  0  0  0  0  0
   89.7362  103.2491  -43.6737 C   0  0  0  1  0  4  0  0  0  0  0  0
   93.3664  102.6994  -44.8897 C   0  0  0  1  0  4  0  0  0  0  0  0
   94.0132  103.9483  -44.3058 C   0  0  0  1  0  4  0  0  0  0  0  0
   92.4510   99.9400  -44.6950 C   0  0  0  1  0  4  0  0  0  0  0  0
   91.8210   98.7070  -45.3220 C   0  0  0  1  0  4  0  0  0  0  0  0
   92.3153   95.9536  -46.3559 O   0  0  0  1  0  2  0  0  0  0  0  0
   89.4312   93.2349  -41.4387 I   0  0  0  1  0  1  0  0  0  0  0  0
   94.0026   93.3854  -45.4381 I   0  0  0  1  0  1  0  0  0  0  0  0
   90.6654   98.1803  -43.7171 H   0  0  0  1  0  1  0  0  0  0  0  0
   91.9374   95.6280  -47.1644 H   0  0  0  1  0  1  0  0  0  0  0  0
   92.0271   92.7080  -43.1249 H   0  0  0  1  0  1  0  0  0  0  0  0
   90.1132   97.1980  -46.4158 H   0  0  0  1  0  1  0  0  0  0  0  0
   88.8172   97.1707  -45.1702 H   0  0  0  1  0  1  0  0  0  0  0  0
   92.2147  102.2040  -43.2644 H   0  0  0  1  0  1  0  0  0  0  0  0
   88.6095   99.2654  -44.2068 H   0  0  0  1  0  1  0  0  0  0  0  0
   89.3242   99.8170  -45.7598 H   0  0  0  1  0  1  0  0  0  0  0  0
   88.9257   95.7042  -43.2823 H   0  0  0  1  0  1  0  0  0  0  0  0
   90.4413  100.4594  -42.9731 H   0  0  0  1  0  1  0  0  0  0  0  0
   89.4801  101.5838  -43.9926 H   0  0  0  1  0  1  0  0  0  0  0  0
   91.1614  101.2320  -45.8572 H   0  0  0  1  0  1  0  0  0  0  0  0
   90.8693  103.7017  -45.4320 H   0  0  0  1  0  1  0  0  0  0  0  0
   91.5197  104.4064  -43.9136 H   0  0  0  1  0  1  0  0  0  0  0  0
   89.2523  102.3738  -44.1326 H   0  0  0  1  0  1  0  0  0  0  0  0
   89.0834  104.1281  -43.7814 H   0  0  0  1  0  1  0  0  0  0  0  0
   89.9120  103.0521  -42.6053 H   0  0  0  1  0  1  0  0  0  0  0  0
   93.2011  102.8618  -45.9647 H   0  0  0  1  0  1  0  0  0  0  0  0
   94.0525  101.8512  -44.7476 H   0  0  0  1  0  1  0  0  0  0  0  0
   94.9777  104.1289  -44.8021 H   0  0  0  1  0  1  0  0  0  0  0  0
   94.1781  103.8057  -43.2273 H   0  0  0  1  0  1  0  0  0  0  0  0
   93.3525  104.8132  -44.4638 H   0  0  0  1  0  1  0  0  0  0  0  0
   92.6876   99.7454  -43.6396 H   0  0  0  1  0  1  0  0  0  0  0  0
   93.3718  100.2075  -45.2346 H   0  0  0  1  0  1  0  0  0  0  0  0
   91.6686   98.8910  -46.3961 H   0  0  0  1  0  1  0  0  0  0  0  0
   92.4999   97.8526  -45.1887 H   0  0  0  1  0  1  0  0  0  0  0  0
  1  6  1  0  0  0  0
  1  7  1  0  0  0  0
  1 18  1  0  0  0  0
  1 22  1  0  0  0  0
  2 12  1  0  0  0  0
  2 13  1  0  0  0  0
  2 15  1  0  0  0  0
  2 27  1  0  0  0  0
  3  5  2  0  0  0  0
  3  8  1  0  0  0  0
  3 20  1  0  0  0  0
  4  6  1  0  0  0  0
  4  8  2  0  0  0  0
  4 10  1  0  0  0  0
  5  9  1  0  0  0  0
  5 24  1  0  0  0  0
  6 25  1  0  0  0  0
  6 26  1  0  0  0  0
  7 11  1  0  0  0  0
  7 28  1  0  0  0  0
  7 29  1  0  0  0  0
  8 30  1  0  0  0  0
  9 10  2  0  0  0  0
  9 21  1  0  0  0  0
 10 19  1  0  0  0  0
 11 12  1  0  0  0  0
 11 31  1  0  0  0  0
 11 32  1  0  0  0  0
 12 17  1  0  0  0  0
 12 33  1  0  0  0  0
 13 14  1  0  0  0  0
 13 34  1  0  0  0  0
 13 35  1  0  0  0  0
 14 36  1  0  0  0  0
 14 37  1  0  0  0  0
 14 38  1  0  0  0  0
 15 16  1  0  0  0  0
 15 39  1  0  0  0  0
 15 40  1  0  0  0  0
 16 41  1  0  0  0  0
 16 42  1  0  0  0  0
 16 43  1  0  0  0  0
 17 18  1  0  0  0  0
 17 44  1  0  0  0  0
 17 45  1  0  0  0  0
 18 46  1  0  0  0  0
 18 47  1  0  0  0  0
 19 23  1  0  0  0  0
M  END
> <ConfScore>
-0.56087 

$$$$
4agm


 47 48  0  0  0  0  0  0  0  0999 V2000
   90.4980   98.3810  -44.6910 N   0  3  0  1  0  4  0  0  0  0  0  0
   92.0405  102.3576  -44.2461 N   0  3  0  1  0  4  0  0  0  0  0  0
   90.4023   94.1419  -43.0866 C   0  0  0  1  0  3  0  0  0  0  0  0
   90.4774   95.8983  -44.7669 C   0  0  0  1  0  3  0  0  0  0  0  0
   91.5927   93.5913  -43.5786 C   0  0  0  1  0  3  0  0  0  0  0  0
   89.9050   97.1660  -45.3350 C   0  0  0  1  0  4  0  0  0  0  0  0
   89.5430   99.5450  -44.7170 C   0  0  0  1  0  4  0  0  0  0  0  0
   89.8469   95.2885  -43.6748 C   0  0  0  1  0  3  0  0  0  0  0  0
   92.2077   94.2155  -44.6762 C   0  0  0  1  0  3  0  0  0  0  0  0
   91.6850   95.3679  -45.2926 C   0  0  0  1  0  3  0  0  0  0  0  0
   90.1750  100.7310  -44.0050 C   0  0  0  1  0  4  0  0  0  0  0  0
   91.4300  101.0810  -44.8020 C   0  0  0  1  0  4  0  0  0  0  0  0
   91.0627  103.5137  -44.3648 C   0  0  0  1  0  4  0  0  0  0  0  0
   89.7362  103.2491  -43.6737 C   0  0  0  1  0  4  0  0  0  0  0  0
   93.3664  102.6994  -44.8897 C   0  0  0  1  0  4  0  0  0  0  0  0
   94.0132  103.9483  -44.3058 C   0  0  0  1  0  4  0  0  0  0  0  0
   92.4510   99.9400  -44.6950 C   0  0  0  1  0  4  0  0  0  0  0  0
   91.8210   98.7070  -45.3220 C   0  0  0  1  0  4  0  0  0  0  0  0
   92.3153   95.9536  -46.3559 O   0  0  0  1  0  2  0  0  0  0  0  0
   89.4312   93.2349  -41.4387 I   0  0  0  1  0  1  0  0  0  0  0  0
   94.0026   93.3854  -45.4381 I   0  0  0  1  0  1  0  0  0  0  0  0
   90.6654   98.1803  -43.7171 H   0  0  0  1  0  1  0  0  0  0  0  0
   91.9374   95.6280  -47.1644 H   0  0  0  1  0  1  0  0  0  0  0  0
   92.0271   92.7080  -43.1249 H   0  0  0  1  0  1  0  0  0  0  0  0
   90.1132   97.1980  -46.4158 H   0  0  0  1  0  1  0  0  0  0  0  0
   88.8172   97.1707  -45.1702 H   0  0  0  1  0  1  0  0  0  0  0  0
   92.2147  102.2040  -43.2644 H   0  0  0  1  0  1  0  0  0  0  0  0
   88.6095   99.2654  -44.2068 H   0  0  0  1  0  1  0  0  0  0  0  0
   89.3242   99.8170  -45.7598 H   0  0  0  1  0  1  0  0  0  0  0  0
   88.9257   95.7042  -43.2823 H   0  0  0  1  0  1  0  0  0  0  0  0
   90.4413  100.4594  -42.9731 H   0  0  0  1  0  1  0  0  0  0  0  0
   89.4801  101.5838  -43.9926 H   0  0  0  1  0  1  0  0  0  0  0  0
   91.1614  101.2320  -45.8572 H   0  0  0  1  0  1  0  0  0  0  0  0
   90.8693  103.7017  -45.4320 H   0  0  0  1  0  1  0  0  0  0  0  0
   91.5197  104.4064  -43.9136 H   0  0  0  1  0  1  0  0  0  0  0  0
   89.2523  102.3738  -44.1326 H   0  0  0  1  0  1  0  0  0  0  0  0
   89.0834  104.1281  -43.7814 H   0  0  0  1  0  1  0  0  0  0  0  0
   89.9120  103.0521  -42.6053 H   0  0  0  1  0  1  0  0  0  0  0  0
   93.2011  102.8618  -45.9647 H   0  0  0  1  0  1  0  0  0  0  0  0
   94.0525  101.8512  -44.7476 H   0  0  0  1  0  1  0  0  0  0  0  0
   93.3441  104.8094  -44.4480 H   0  0  0  1  0  1  0  0  0  0  0  0
   94.9686  104.1396  -44.8169 H   0  0  0  1  0  1  0  0  0  0  0  0
   94.1960  103.8003  -43.2315 H   0  0  0  1  0  1  0  0  0  0  0  0
   92.6876   99.7454  -43.6396 H   0  0  0  1  0  1  0  0  0  0  0  0
   93.3718  100.2075  -45.2346 H   0  0  0  1  0  1  0  0  0  0  0  0
   91.6686   98.8910  -46.3961 H   0  0  0  1  0  1  0  0  0  0  0  0
   92.4999   97.8526  -45.1887 H   0  0  0  1  0  1  0  0  0  0  0  0
  1  6  1  0  0  0  0
  1  7  1  0  0  0  0
  1 18  1  0  0  0  0
  1 22  1  0  0  0  0
  2 12  1  0  0  0  0
  2 13  1  0  0  0  0
  2 15  1  0  0  0  0
  2 27  1  0  0  0  0
  3  5  2  0  0  0  0
  3  8  1  0  0  0  0
  3 20  1  0  0  0  0
  4  6  1  0  0  0  0
  4  8  2  0  0  0  0
  4 10  1  0  0  0  0
  5  9  1  0  0  0  0
  5 24  1  0  0  0  0
  6 25  1  0  0  0  0
  6 26  1  0  0  0  0
  7 11  1  0  0  0  0
  7 28  1  0  0  0  0
  7 29  1  0  0  0  0
  8 30  1  0  0  0  0
  9 10  2  0  0  0  0
  9 21  1  0  0  0  0
 10 19  1  0  0  0  0
 11 12  1  0  0  0  0
 11 31  1  0  0  0  0
 11 32  1  0  0  0  0
 12 17  1  0  0  0  0
 12 33  1  0  0  0  0
 13 14  1  0  0  0  0
 13 34  1  0  0  0  0
 13 35  1  0  0  0  0
 14 36  1  0  0  0  0
 14 37  1  0  0  0  0
 14 38  1  0  0  0  0
 15 16  1  0  0  0  0
 15 39  1  0  0  0  0
 15 40  1  0  0  0  0
 16 41  1  0  0  0  0
 16 42  1  0  0  0  0
 16 43  1  0  0  0  0
 17 18  1  0  0  0  0
 17 44  1  0  0  0  0
 17 45  1  0  0  0  0
 18 46  1  0  0  0  0
 18 47  1  0  0  0  0
 19 23  1  0  0  0  0
M  END
> <ConfScore>
-0.56087 

$$$$
4agm


 47 48  0  0  0  0  0  0  0  0999 V2000
   90.4980   98.3810  -44.6910 N   0  3  0  1  0  4  0  0  0  0  0  0
   92.0405  102.3576  -44.2461 N   0  3  0  1  0  4  0  0  0  0  0  0
   90.4023   94.1419  -43.0866 C   0  0  0  1  0  3  0  0  0  0  0  0
   90.4774   95.8983  -44.7669 C   0  0  0  1  0  3  0  0  0  0  0  0
   91.5927   93.5913  -43.5786 C   0  0  0  1  0  3  0  0  0  0  0  0
   89.9050   97.1660  -45.3350 C   0  0  0  1  0  4  0  0  0  0  0  0
   89.5430   99.5450  -44.7170 C   0  0  0  1  0  4  0  0  0  0  0  0
   89.8469   95.2885  -43.6748 C   0  0  0  1  0  3  0  0  0  0  0  0
   92.2077   94.2155  -44.6762 C   0  0  0  1  0  3  0  0  0  0  0  0
   91.6850   95.3679  -45.2926 C   0  0  0  1  0  3  0  0  0  0  0  0
   90.1750  100.7310  -44.0050 C   0  0  0  1  0  4  0  0  0  0  0  0
   91.4300  101.0810  -44.8020 C   0  0  0  1  0  4  0  0  0  0  0  0
   91.0627  103.5137  -44.3648 C   0  0  0  1  0  4  0  0  0  0  0  0
   89.7043  103.2138  -43.7547 C   0  0  0  1  0  4  0  0  0  0  0  0
   93.3664  102.6994  -44.8897 C   0  0  0  1  0  4  0  0  0  0  0  0
   94.0132  103.9483  -44.3058 C   0  0  0  1  0  4  0  0  0  0  0  0
   92.4510   99.9400  -44.6950 C   0  0  0  1  0  4  0  0  0  0  0  0
   91.8210   98.7070  -45.3220 C   0  0  0  1  0  4  0  0  0  0  0  0
   92.3153   95.9536  -46.3559 O   0  0  0  1  0  2  0  0  0  0  0  0
   89.4312   93.2349  -41.4387 I   0  0  0  1  0  1  0  0  0  0  0  0
   94.0026   93.3854  -45.4381 I   0  0  0  1  0  1  0  0  0  0  0  0
   90.6654   98.1803  -43.7171 H   0  0  0  1  0  1  0  0  0  0  0  0
   91.9374   95.6280  -47.1644 H   0  0  0  1  0  1  0  0  0  0  0  0
   92.0271   92.7080  -43.1249 H   0  0  0  1  0  1  0  0  0  0  0  0
   90.1132   97.1980  -46.4158 H   0  0  0  1  0  1  0  0  0  0  0  0
   88.8172   97.1707  -45.1702 H   0  0  0  1  0  1  0  0  0  0  0  0
   92.2147  102.2040  -43.2644 H   0  0  0  1  0  1  0  0  0  0  0  0
   88.6095   99.2654  -44.2068 H   0  0  0  1  0  1  0  0  0  0  0  0
   89.3242   99.8170  -45.7598 H   0  0  0  1  0  1  0  0  0  0  0  0
   88.9257   95.7042  -43.2823 H   0  0  0  1  0  1  0  0  0  0  0  0
   90.4413  100.4594  -42.9731 H   0  0  0  1  0  1  0  0  0  0  0  0
   89.4801  101.5838  -43.9926 H   0  0  0  1  0  1  0  0  0  0  0  0
   91.1614  101.2320  -45.8572 H   0  0  0  1  0  1  0  0  0  0  0  0
   90.9228  103.7470  -45.4314 H   0  0  0  1  0  1  0  0  0  0  0  0
   91.4904  104.3878  -43.8527 H   0  0  0  1  0  1  0  0  0  0  0  0
   89.8272  102.9716  -42.6883 H   0  0  0  1  0  1  0  0  0  0  0  0
   89.2477  102.3588  -44.2752 H   0  0  0  1  0  1  0  0  0  0  0  0
   89.0534  104.0953  -43.8573 H   0  0  0  1  0  1  0  0  0  0  0  0
   93.2011  102.8618  -45.9647 H   0  0  0  1  0  1  0  0  0  0  0  0
   94.0525  101.8512  -44.7476 H   0  0  0  1  0  1  0  0  0  0  0  0
   93.3441  104.8094  -44.4480 H   0  0  0  1  0  1  0  0  0  0  0  0
   94.9686  104.1396  -44.8169 H   0  0  0  1  0  1  0  0  0  0  0  0
   94.1960  103.8003  -43.2315 H   0  0  0  1  0  1  0  0  0  0  0  0
   92.6876   99.7454  -43.6396 H   0  0  0  1  0  1  0  0  0  0  0  0
   93.3718  100.2075  -45.2346 H   0  0  0  1  0  1  0  0  0  0  0  0
   91.6686   98.8910  -46.3961 H   0  0  0  1  0  1  0  0  0  0  0  0
   92.4999   97.8526  -45.1887 H   0  0  0  1  0  1  0  0  0  0  0  0
  1  6  1  0  0  0  0
  1  7  1  0  0  0  0
  1 18  1  0  0  0  0
  1 22  1  0  0  0  0
  2 12  1  0  0  0  0
  2 13  1  0  0  0  0
  2 15  1  0  0  0  0
  2 27  1  0  0  0  0
  3  5  2  0  0  0  0
  3  8  1  0  0  0  0
  3 20  1  0  0  0  0
  4  6  1  0  0  0  0
  4  8  2  0  0  0  0
  4 10  1  0  0  0  0
  5  9  1  0  0  0  0
  5 24  1  0  0  0  0
  6 25  1  0  0  0  0
  6 26  1  0  0  0  0
  7 11  1  0  0  0  0
  7 28  1  0  0  0  0
  7 29  1  0  0  0  0
  8 30  1  0  0  0  0
  9 10  2  0  0  0  0
  9 21  1  0  0  0  0
 10 19  1  0  0  0  0
 11 12  1  0  0  0  0
 11 31  1  0  0  0  0
 11 32  1  0  0  0  0
 12 17  1  0  0  0  0
 12 33  1  0  0  0  0
 13 14  1  0  0  0  0
 13 34  1  0  0  0  0
 13 35  1  0  0  0  0
 14 36  1  0  0  0  0
 14 37  1  0  0  0  0
 14 38  1  0  0  0  0
 15 16  1  0  0  0  0
 15 39  1  0  0  0  0
 15 40  1  0  0  0  0
 16 41  1  0  0  0  0
 16 42  1  0  0  0  0
 16 43  1  0  0  0  0
 17 18  1  0  0  0  0
 17 44  1  0  0  0  0
 17 45  1  0  0  0  0
 18 46  1  0  0  0  0
 18 47  1  0  0  0  0
 19 23  1  0  0  0  0
M  END
> <ConfScore>
-0.56087 

$$$$
4agm


 47 48  0  0  0  0  0  0  0  0999 V2000
   90.4980   98.3810  -44.6910 N   0  3  0  1  0  4  0  0  0  0  0  0
   92.0405  102.3576  -44.2461 N   0  3  0  1  0  4  0  0  0  0  0  0
   90.4023   94.1419  -43.0866 C   0  0  0  1  0  3  0  0  0  0  0  0
   90.4774   95.8983  -44.7669 C   0  0  0  1  0  3  0  0  0  0  0  0
   91.5927   93.5913  -43.5786 C   0  0  0  1  0  3  0  0  0  0  0  0
   89.9050   97.1660  -45.3350 C   0  0  0  1  0  4  0  0  0  0  0  0
   89.5430   99.5450  -44.7170 C   0  0  0  1  0  4  0  0  0  0  0  0
   89.8469   95.2885  -43.6748 C   0  0  0  1  0  3  0  0  0  0  0  0
   92.2077   94.2155  -44.6762 C   0  0  0  1  0  3  0  0  0  0  0  0
   91.6850   95.3679  -45.2926 C   0  0  0  1  0  3  0  0  0  0  0  0
   90.1750  100.7310  -44.0050 C   0  0  0  1  0  4  0  0  0  0  0  0
   91.4300  101.0810  -44.8020 C   0  0  0  1  0  4  0  0  0  0  0  0
   91.0627  103.5137  -44.3648 C   0  0  0  1  0  4  0  0  0  0  0  0
   89.7645  103.2794  -43.6117 C   0  0  0  1  0  4  0  0  0  0  0  0
   93.3664  102.6994  -44.8897 C   0  0  0  1  0  4  0  0  0  0  0  0
   93.2670  102.9098  -46.3946 C   0  0  0  1  0  4  0  0  0  0  0  0
   92.4510   99.9400  -44.6950 C   0  0  0  1  0  4  0  0  0  0  0  0
   91.8210   98.7070  -45.3220 C   0  0  0  1  0  4  0  0  0  0  0  0
   92.3153   95.9536  -46.3559 O   0  0  0  1  0  2  0  0  0  0  0  0
   89.4312   93.2349  -41.4387 I   0  0  0  1  0  1  0  0  0  0  0  0
   94.0026   93.3854  -45.4381 I   0  0  0  1  0  1  0  0  0  0  0  0
   90.6654   98.1803  -43.7171 H   0  0  0  1  0  1  0  0  0  0  0  0
   91.9374   95.6280  -47.1644 H   0  0  0  1  0  1  0  0  0  0  0  0
   92.0271   92.7080  -43.1249 H   0  0  0  1  0  1  0  0  0  0  0  0
   90.1132   97.1980  -46.4158 H   0  0  0  1  0  1  0  0  0  0  0  0
   88.8172   97.1707  -45.1702 H   0  0  0  1  0  1  0  0  0  0  0  0
   92.2147  102.2040  -43.2644 H   0  0  0  1  0  1  0  0  0  0  0  0
   88.6095   99.2654  -44.2068 H   0  0  0  1  0  1  0  0  0  0  0  0
   89.3242   99.8170  -45.7598 H   0  0  0  1  0  1  0  0  0  0  0  0
   88.9257   95.7042  -43.2823 H   0  0  0  1  0  1  0  0  0  0  0  0
   90.4413  100.4594  -42.9731 H   0  0  0  1  0  1  0  0  0  0  0  0
   89.4801  101.5838  -43.9926 H   0  0  0  1  0  1  0  0  0  0  0  0
   91.1614  101.2320  -45.8572 H   0  0  0  1  0  1  0  0  0  0  0  0
   90.8266  103.6659  -45.4291 H   0  0  0  1  0  1  0  0  0  0  0  0
   91.5408  104.4191  -43.9636 H   0  0  0  1  0  1  0  0  0  0  0  0
   89.9835  103.1185  -42.5454 H   0  0  0  1  0  1  0  0  0  0  0  0
   89.2570  102.3928  -44.0202 H   0  0  0  1  0  1  0  0  0  0  0  0
   89.1121  104.1587  -43.7230 H   0  0  0  1  0  1  0  0  0  0  0  0
   94.0701  101.8763  -44.6979 H   0  0  0  1  0  1  0  0  0  0  0  0
   93.7489  103.6238  -44.4318 H   0  0  0  1  0  1  0  0  0  0  0  0
   92.8949  101.9908  -46.8704 H   0  0  0  1  0  1  0  0  0  0  0  0
   94.2616  103.1529  -46.7973 H   0  0  0  1  0  1  0  0  0  0  0  0
   92.5743  103.7375  -46.6056 H   0  0  0  1  0  1  0  0  0  0  0  0
   92.6876   99.7454  -43.6396 H   0  0  0  1  0  1  0  0  0  0  0  0
   93.3718  100.2075  -45.2346 H   0  0  0  1  0  1  0  0  0  0  0  0
   91.6686   98.8910  -46.3961 H   0  0  0  1  0  1  0  0  0  0  0  0
   92.4999   97.8526  -45.1887 H   0  0  0  1  0  1  0  0  0  0  0  0
  1  6  1  0  0  0  0
  1  7  1  0  0  0  0
  1 18  1  0  0  0  0
  1 22  1  0  0  0  0
  2 12  1  0  0  0  0
  2 13  1  0  0  0  0
  2 15  1  0  0  0  0
  2 27  1  0  0  0  0
  3  5  2  0  0  0  0
  3  8  1  0  0  0  0
  3 20  1  0  0  0  0
  4  6  1  0  0  0  0
  4  8  2  0  0  0  0
  4 10  1  0  0  0  0
  5  9  1  0  0  0  0
  5 24  1  0  0  0  0
  6 25  1  0  0  0  0
  6 26  1  0  0  0  0
  7 11  1  0  0  0  0
  7 28  1  0  0  0  0
  7 29  1  0  0  0  0
  8 30  1  0  0  0  0
  9 10  2  0  0  0  0
  9 21  1  0  0  0  0
 10 19  1  0  0  0  0
 11 12  1  0  0  0  0
 11 31  1  0  0  0  0
 11 32  1  0  0  0  0
 12 17  1  0  0  0  0
 12 33  1  0  0  0  0
 13 14  1  0  0  0  0
 13 34  1  0  0  0  0
 13 35  1  0  0  0  0
 14 36  1  0  0  0  0
 14 37  1  0  0  0  0
 14 38  1  0  0  0  0
 15 16  1  0  0  0  0
 15 39  1  0  0  0  0
 15 40  1  0  0  0  0
 16 41  1  0  0  0  0
 16 42  1  0  0  0  0
 16 43  1  0  0  0  0
 17 18  1  0  0  0  0
 17 44  1  0  0  0  0
 17 45  1  0  0  0  0
 18 46  1  0  0  0  0
 18 47  1  0  0  0  0
 19 23  1  0  0  0  0
M  END
> <ConfScore>
-0.560568 

$$$$
4agm


 47 48  0  0  0  0  0  0  0  0999 V2000
   90.4980   98.3810  -44.6910 N   0  3  0  1  0  4  0  0  0  0  0  0
   92.0405  102.3576  -44.2461 N   0  3  0  1  0  4  0  0  0  0  0  0
   92.1284   94.1060  -44.9600 C   0  0  0  1  0  3  0  0  0  0  0  0
   90.4948   95.8988  -44.7838 C   0  0  0  1  0  3  0  0  0  0  0  0
   91.5529   93.4458  -43.8667 C   0  0  0  1  0  3  0  0  0  0  0  0
   89.9050   97.1660  -45.3350 C   0  0  0  1  0  4  0  0  0  0  0  0
   89.5430   99.5450  -44.7170 C   0  0  0  1  0  4  0  0  0  0  0  0
   91.6038   95.3243  -45.4178 C   0  0  0  1  0  3  0  0  0  0  0  0
   90.4437   94.0397  -43.2427 C   0  0  0  1  0  3  0  0  0  0  0  0
   89.8858   95.2583  -43.6726 C   0  0  0  1  0  3  0  0  0  0  0  0
   90.1750  100.7310  -44.0050 C   0  0  0  1  0  4  0  0  0  0  0  0
   91.4300  101.0810  -44.8020 C   0  0  0  1  0  4  0  0  0  0  0  0
   91.0627  103.5137  -44.3648 C   0  0  0  1  0  4  0  0  0  0  0  0
   89.7362  103.2491  -43.6737 C   0  0  0  1  0  4  0  0  0  0  0  0
   93.3664  102.6994  -44.8897 C   0  0  0  1  0  4  0  0  0  0  0  0
   94.4437  101.6528  -44.6381 C   0  0  0  1  0  4  0  0  0  0  0  0
   92.4510   99.9400  -44.6950 C   0  0  0  1  0  4  0  0  0  0  0  0
   91.8210   98.7070  -45.3220 C   0  0  0  1  0  4  0  0  0  0  0  0
   88.7999   95.8039  -43.0447 O   0  0  0  1  0  2  0  0  0  0  0  0
   93.8067   93.2571  -45.9315 I   0  0  0  1  0  1  0  0  0  0  0  0
   89.5712   93.0573  -41.5799 I   0  0  0  1  0  1  0  0  0  0  0  0
   90.6654   98.1803  -43.7171 H   0  0  0  1  0  1  0  0  0  0  0  0
   89.0942   96.4312  -42.3947 H   0  0  0  1  0  1  0  0  0  0  0  0
   91.9526   92.5027  -43.5122 H   0  0  0  1  0  1  0  0  0  0  0  0
   90.0976   97.2070  -46.4183 H   0  0  0  1  0  1  0  0  0  0  0  0
   88.8196   97.1614  -45.1549 H   0  0  0  1  0  1  0  0  0  0  0  0
   92.2147  102.2040  -43.2644 H   0  0  0  1  0  1  0  0  0  0  0  0
   88.6095   99.2654  -44.2068 H   0  0  0  1  0  1  0  0  0  0  0  0
   89.3242   99.8170  -45.7598 H   0  0  0  1  0  1  0  0  0  0  0  0
   92.0589   95.8232  -46.2662 H   0  0  0  1  0  1  0  0  0  0  0  0
   90.4413  100.4594  -42.9731 H   0  0  0  1  0  1  0  0  0  0  0  0
   89.4801  101.5838  -43.9926 H   0  0  0  1  0  1  0  0  0  0  0  0
   91.1614  101.2320  -45.8572 H   0  0  0  1  0  1  0  0  0  0  0  0
   90.8693  103.7017  -45.4320 H   0  0  0  1  0  1  0  0  0  0  0  0
   91.5197  104.4064  -43.9136 H   0  0  0  1  0  1  0  0  0  0  0  0
   89.2523  102.3738  -44.1326 H   0  0  0  1  0  1  0  0  0  0  0  0
   89.0834  104.1281  -43.7814 H   0  0  0  1  0  1  0  0  0  0  0  0
   89.9120  103.0521  -42.6053 H   0  0  0  1  0  1  0  0  0  0  0  0
   93.7131  103.6615  -44.4853 H   0  0  0  1  0  1  0  0  0  0  0  0
   93.2143  102.7908  -45.9754 H   0  0  0  1  0  1  0  0  0  0  0  0
   95.3719  101.9514  -45.1465 H   0  0  0  1  0  1  0  0  0  0  0  0
   94.1089  100.6807  -45.0298 H   0  0  0  1  0  1  0  0  0  0  0  0
   94.6292  101.5679  -43.5575 H   0  0  0  1  0  1  0  0  0  0  0  0
   92.6876   99.7454  -43.6396 H   0  0  0  1  0  1  0  0  0  0  0  0
   93.3718  100.2075  -45.2346 H   0  0  0  1  0  1  0  0  0  0  0  0
   91.6686   98.8910  -46.3961 H   0  0  0  1  0  1  0  0  0  0  0  0
   92.4999   97.8526  -45.1887 H   0  0  0  1  0  1  0  0  0  0  0  0
  1  6  1  0  0  0  0
  1  7  1  0  0  0  0
  1 18  1  0  0  0  0
  1 22  1  0  0  0  0
  2 12  1  0  0  0  0
  2 13  1  0  0  0  0
  2 15  1  0  0  0  0
  2 27  1  0  0  0  0
  3  5  2  0  0  0  0
  3  8  1  0  0  0  0
  3 20  1  0  0  0  0
  4  6  1  0  0  0  0
  4  8  2  0  0  0  0
  4 10  1  0  0  0  0
  5  9  1  0  0  0  0
  5 24  1  0  0  0  0
  6 25  1  0  0  0  0
  6 26  1  0  0  0  0
  7 11  1  0  0  0  0
  7 28  1  0  0  0  0
  7 29  1  0  0  0  0
  8 30  1  0  0  0  0
  9 10  2  0  0  0  0
  9 21  1  0  0  0  0
 10 19  1  0  0  0  0
 11 12  1  0  0  0  0
 11 31  1  0  0  0  0
 11 32  1  0  0  0  0
 12 17  1  0  0  0  0
 12 33  1  0  0  0  0
 13 14  1  0  0  0  0
 13 34  1  0  0  0  0
 13 35  1  0  0  0  0
 14 36  1  0  0  0  0
 14 37  1  0  0  0  0
 14 38  1  0  0  0  0
 15 16  1  0  0  0  0
 15 39  1  0  0  0  0
 15 40  1  0  0  0  0
 16 41  1  0  0  0  0
 16 42  1  0  0  0  0
 16 43  1  0  0  0  0
 17 18  1  0  0  0  0
 17 44  1  0  0  0  0
 17 45  1  0  0  0  0
 18 46  1  0  0  0  0
 18 47  1  0  0  0  0
 19 23  1  0  0  0  0
M  END
> <ConfScore>
-0.556014 

$$$$
4agm


 47 48  0  0  0  0  0  0  0  0999 V2000
   90.4980   98.3810  -44.6910 N   0  3  0  1  0  4  0  0  0  0  0  0
   92.0405  102.3576  -44.2461 N   0  3  0  1  0  4  0  0  0  0  0  0
   92.1284   94.1060  -44.9600 C   0  0  0  1  0  3  0  0  0  0  0  0
   90.4948   95.8988  -44.7838 C   0  0  0  1  0  3  0  0  0  0  0  0
   91.5529   93.4458  -43.8667 C   0  0  0  1  0  3  0  0  0  0  0  0
   89.9050   97.1660  -45.3350 C   0  0  0  1  0  4  0  0  0  0  0  0
   89.5430   99.5450  -44.7170 C   0  0  0  1  0  4  0  0  0  0  0  0
   91.6038   95.3243  -45.4178 C   0  0  0  1  0  3  0  0  0  0  0  0
   90.4437   94.0397  -43.2427 C   0  0  0  1  0  3  0  0  0  0  0  0
   89.8858   95.2583  -43.6726 C   0  0  0  1  0  3  0  0  0  0  0  0
   90.1750  100.7310  -44.0050 C   0  0  0  1  0  4  0  0  0  0  0  0
   91.4300  101.0810  -44.8020 C   0  0  0  1  0  4  0  0  0  0  0  0
   92.4671  102.1613  -42.8017 C   0  0  0  1  0  4  0  0  0  0  0  0
   93.4462  101.0146  -42.6173 C   0  0  0  1  0  4  0  0  0  0  0  0
   91.1224  103.5522  -44.3836 C   0  0  0  1  0  4  0  0  0  0  0  0
   90.8135  103.9087  -45.8316 C   0  0  0  1  0  4  0  0  0  0  0  0
   92.4510   99.9400  -44.6950 C   0  0  0  1  0  4  0  0  0  0  0  0
   91.8210   98.7070  -45.3220 C   0  0  0  1  0  4  0  0  0  0  0  0
   88.7999   95.8039  -43.0447 O   0  0  0  1  0  2  0  0  0  0  0  0
   93.8067   93.2571  -45.9315 I   0  0  0  1  0  1  0  0  0  0  0  0
   89.5712   93.0573  -41.5799 I   0  0  0  1  0  1  0  0  0  0  0  0
   90.6654   98.1803  -43.7171 H   0  0  0  1  0  1  0  0  0  0  0  0
   89.0942   96.4312  -42.3947 H   0  0  0  1  0  1  0  0  0  0  0  0
   91.9526   92.5027  -43.5122 H   0  0  0  1  0  1  0  0  0  0  0  0
   90.0976   97.2070  -46.4183 H   0  0  0  1  0  1  0  0  0  0  0  0
   88.8196   97.1614  -45.1549 H   0  0  0  1  0  1  0  0  0  0  0  0
   92.8698  102.5533  -44.7860 H   0  0  0  1  0  1  0  0  0  0  0  0
   88.6095   99.2654  -44.2068 H   0  0  0  1  0  1  0  0  0  0  0  0
   89.3242   99.8170  -45.7598 H   0  0  0  1  0  1  0  0  0  0  0  0
   92.0589   95.8232  -46.2662 H   0  0  0  1  0  1  0  0  0  0  0  0
   90.4413  100.4594  -42.9731 H   0  0  0  1  0  1  0  0  0  0  0  0
   89.4801  101.5838  -43.9926 H   0  0  0  1  0  1  0  0  0  0  0  0
   91.1614  101.2320  -45.8572 H   0  0  0  1  0  1  0  0  0  0  0  0
   91.5713  101.9567  -42.1957 H   0  0  0  1  0  1  0  0  0  0  0  0
   92.9433  103.0874  -42.4484 H   0  0  0  1  0  1  0  0  0  0  0  0
   92.9746  100.0746  -42.9410 H   0  0  0  1  0  1  0  0  0  0  0  0
   93.7275  100.9380  -41.5564 H   0  0  0  1  0  1  0  0  0  0  0  0
   94.3465  101.2000  -43.2225 H   0  0  0  1  0  1  0  0  0  0  0  0
   91.6026  104.4184  -43.9056 H   0  0  0  1  0  1  0  0  0  0  0  0
   90.1763  103.3266  -43.8694 H   0  0  0  1  0  1  0  0  0  0  0  0
   90.1296  104.7694  -45.8603 H   0  0  0  1  0  1  0  0  0  0  0  0
   90.3396  103.0486  -46.3278 H   0  0  0  1  0  1  0  0  0  0  0  0
   91.7463  104.1648  -46.3547 H   0  0  0  1  0  1  0  0  0  0  0  0
   92.6876   99.7454  -43.6396 H   0  0  0  1  0  1  0  0  0  0  0  0
   93.3718  100.2075  -45.2346 H   0  0  0  1  0  1  0  0  0  0  0  0
   91.6686   98.8910  -46.3961 H   0  0  0  1  0  1  0  0  0  0  0  0
   92.4999   97.8526  -45.1887 H   0  0  0  1  0  1  0  0  0  0  0  0
  1  6  1  0  0  0  0
  1  7  1  0  0  0  0
  1 18  1  0  0  0  0
  1 22  1  0  0  0  0
  2 12  1  0  0  0  0
  2 13  1  0  0  0  0
  2 15  1  0  0  0  0
  2 27  1  0  0  0  0
  3  5  2  0  0  0  0
  3  8  1  0  0  0  0
  3 20  1  0  0  0  0
  4  6  1  0  0  0  0
  4  8  2  0  0  0  0
  4 10  1  0  0  0  0
  5  9  1  0  0  0  0
  5 24  1  0  0  0  0
  6 25  1  0  0  0  0
  6 26  1  0  0  0  0
  7 11  1  0  0  0  0
  7 28  1  0  0  0  0
  7 29  1  0  0  0  0
  8 30  1  0  0  0  0
  9 10  2  0  0  0  0
  9 21  1  0  0  0  0
 10 19  1  0  0  0  0
 11 12  1  0  0  0  0
 11 31  1  0  0  0  0
 11 32  1  0  0  0  0
 12 17  1  0  0  0  0
 12 33  1  0  0  0  0
 13 14  1  0  0  0  0
 13 34  1  0  0  0  0
 13 35  1  0  0  0  0
 14 36  1  0  0  0  0
 14 37  1  0  0  0  0
 14 38  1  0  0  0  0
 15 16  1  0  0  0  0
 15 39  1  0  0  0  0
 15 40  1  0  0  0  0
 16 41  1  0  0  0  0
 16 42  1  0  0  0  0
 16 43  1  0  0  0  0
 17 18  1  0  0  0  0
 17 44  1  0  0  0  0
 17 45  1  0  0  0  0
 18 46  1  0  0  0  0
 18 47  1  0  0  0  0
 19 23  1  0  0  0  0
M  END
> <ConfScore>
-0.554586 

$$$$
4agm


 47 48  0  0  0  0  0  0  0  0999 V2000
   90.4980   98.3810  -44.6910 N   0  3  0  1  0  4  0  0  0  0  0  0
   92.0405  102.3576  -44.2461 N   0  3  0  1  0  4  0  0  0  0  0  0
   86.4097   97.2227  -43.8425 C   0  0  0  1  0  3  0  0  0  0  0  0
   88.6529   96.7190  -44.6351 C   0  0  0  1  0  3  0  0  0  0  0  0
   86.3297   95.9745  -43.2116 C   0  0  0  1  0  3  0  0  0  0  0  0
   89.9050   97.1660  -45.3350 C   0  0  0  1  0  4  0  0  0  0  0  0
   89.5430   99.5450  -44.7170 C   0  0  0  1  0  4  0  0  0  0  0  0
   87.5633   97.5949  -44.5495 C   0  0  0  1  0  3  0  0  0  0  0  0
   87.4314   95.1094  -43.3118 C   0  0  0  1  0  3  0  0  0  0  0  0
   88.6073   95.4456  -44.0085 C   0  0  0  1  0  3  0  0  0  0  0  0
   90.1750  100.7310  -44.0050 C   0  0  0  1  0  4  0  0  0  0  0  0
   91.4300  101.0810  -44.8020 C   0  0  0  1  0  4  0  0  0  0  0  0
   93.0655  102.0365  -43.1723 C   0  0  0  1  0  4  0  0  0  0  0  0
   94.1941  101.1490  -43.6683 C   0  0  0  1  0  4  0  0  0  0  0  0
   90.9993  103.3267  -43.7306 C   0  0  0  1  0  4  0  0  0  0  0  0
   89.9813  103.7329  -44.7878 C   0  0  0  1  0  4  0  0  0  0  0  0
   92.4510   99.9400  -44.6950 C   0  0  0  1  0  4  0  0  0  0  0  0
   91.8210   98.7070  -45.3220 C   0  0  0  1  0  4  0  0  0  0  0  0
   89.6641   94.5801  -44.0791 O   0  0  0  1  0  2  0  0  0  0  0  0
   84.7736   98.5610  -43.7283 I   0  0  0  1  0  1  0  0  0  0  0  0
   87.3185   93.2131  -42.3721 I   0  0  0  1  0  1  0  0  0  0  0  0
   90.6654   98.1803  -43.7171 H   0  0  0  1  0  1  0  0  0  0  0  0
   89.9235   94.4732  -44.9868 H   0  0  0  1  0  1  0  0  0  0  0  0
   85.4420   95.6845  -42.6613 H   0  0  0  1  0  1  0  0  0  0  0  0
   90.6427   96.3492  -45.3020 H   0  0  0  1  0  1  0  0  0  0  0  0
   89.6631   97.4003  -46.3824 H   0  0  0  1  0  1  0  0  0  0  0  0
   92.5248  102.8135  -45.0045 H   0  0  0  1  0  1  0  0  0  0  0  0
   88.6095   99.2654  -44.2068 H   0  0  0  1  0  1  0  0  0  0  0  0
   89.3242   99.8170  -45.7598 H   0  0  0  1  0  1  0  0  0  0  0  0
   87.6113   98.5648  -45.0317 H   0  0  0  1  0  1  0  0  0  0  0  0
   90.4413  100.4594  -42.9731 H   0  0  0  1  0  1  0  0  0  0  0  0
   89.4801  101.5838  -43.9926 H   0  0  0  1  0  1  0  0  0  0  0  0
   91.1614  101.2320  -45.8572 H   0  0  0  1  0  1  0  0  0  0  0  0
   92.5559  101.5228  -42.3428 H   0  0  0  1  0  1  0  0  0  0  0  0
   93.4975  102.9797  -42.8074 H   0  0  0  1  0  1  0  0  0  0  0  0
   94.9065  100.9701  -42.8490 H   0  0  0  1  0  1  0  0  0  0  0  0
   94.7117  101.6442  -44.5034 H   0  0  0  1  0  1  0  0  0  0  0  0
   93.7816  100.1881  -44.0112 H   0  0  0  1  0  1  0  0  0  0  0  0
   91.5115  104.2318  -43.3730 H   0  0  0  1  0  1  0  0  0  0  0  0
   90.4647  102.8526  -42.8941 H   0  0  0  1  0  1  0  0  0  0  0  0
   89.2457  104.4199  -44.3448 H   0  0  0  1  0  1  0  0  0  0  0  0
   89.4648  102.8367  -45.1628 H   0  0  0  1  0  1  0  0  0  0  0  0
   90.4955  104.2344  -45.6205 H   0  0  0  1  0  1  0  0  0  0  0  0
   92.6876   99.7454  -43.6396 H   0  0  0  1  0  1  0  0  0  0  0  0
   93.3718  100.2075  -45.2346 H   0  0  0  1  0  1  0  0  0  0  0  0
   91.6686   98.8910  -46.3961 H   0  0  0  1  0  1  0  0  0  0  0  0
   92.4999   97.8526  -45.1887 H   0  0  0  1  0  1  0  0  0  0  0  0
  1  6  1  0  0  0  0
  1  7  1  0  0  0  0
  1 18  1  0  0  0  0
  1 22  1  0  0  0  0
  2 12  1  0  0  0  0
  2 13  1  0  0  0  0
  2 15  1  0  0  0  0
  2 27  1  0  0  0  0
  3  5  2  0  0  0  0
  3  8  1  0  0  0  0
  3 20  1  0  0  0  0
  4  6  1  0  0  0  0
  4  8  2  0  0  0  0
  4 10  1  0  0  0  0
  5  9  1  0  0  0  0
  5 24  1  0  0  0  0
  6 25  1  0  0  0  0
  6 26  1  0  0  0  0
  7 11  1  0  0  0  0
  7 28  1  0  0  0  0
  7 29  1  0  0  0  0
  8 30  1  0  0  0  0
  9 10  2  0  0  0  0
  9 21  1  0  0  0  0
 10 19  1  0  0  0  0
 11 12  1  0  0  0  0
 11 31  1  0  0  0  0
 11 32  1  0  0  0  0
 12 17  1  0  0  0  0
 12 33  1  0  0  0  0
 13 14  1  0  0  0  0
 13 34  1  0  0  0  0
 13 35  1  0  0  0  0
 14 36  1  0  0  0  0
 14 37  1  0  0  0  0
 14 38  1  0  0  0  0
 15 16  1  0  0  0  0
 15 39  1  0  0  0  0
 15 40  1  0  0  0  0
 16 41  1  0  0  0  0
 16 42  1  0  0  0  0
 16 43  1  0  0  0  0
 17 18  1  0  0  0  0
 17 44  1  0  0  0  0
 17 45  1  0  0  0  0
 18 46  1  0  0  0  0
 18 47  1  0  0  0  0
 19 23  1  0  0  0  0
M  END
> <ConfScore>
-0.553589 

$$$$
4agm


 47 48  0  0  0  0  0  0  0  0999 V2000
   90.4980   98.3810  -44.6910 N   0  3  0  1  0  4  0  0  0  0  0  0
   92.0405  102.3576  -44.2461 N   0  3  0  1  0  4  0  0  0  0  0  0
   91.5165   94.7254  -42.9071 C   0  0  0  1  0  3  0  0  0  0  0  0
   90.4774   95.8983  -44.7669 C   0  0  0  1  0  3  0  0  0  0  0  0
   91.6857   93.5805  -43.6964 C   0  0  0  1  0  3  0  0  0  0  0  0
   89.9050   97.1660  -45.3350 C   0  0  0  1  0  4  0  0  0  0  0  0
   89.5430   99.5450  -44.7170 C   0  0  0  1  0  4  0  0  0  0  0  0
   90.9173   95.8783  -43.4372 C   0  0  0  1  0  3  0  0  0  0  0  0
   91.2351   93.6196  -45.0260 C   0  0  0  1  0  3  0  0  0  0  0  0
   90.6319   94.7563  -45.5963 C   0  0  0  1  0  3  0  0  0  0  0  0
   90.1750  100.7310  -44.0050 C   0  0  0  1  0  4  0  0  0  0  0  0
   91.4300  101.0810  -44.8020 C   0  0  0  1  0  4  0  0  0  0  0  0
   91.0627  103.5137  -44.3648 C   0  0  0  1  0  4  0  0  0  0  0  0
   89.7362  103.2491  -43.6737 C   0  0  0  1  0  4  0  0  0  0  0  0
   93.3664  102.6994  -44.8897 C   0  0  0  1  0  4  0  0  0  0  0  0
   94.0132  103.9483  -44.3058 C   0  0  0  1  0  4  0  0  0  0  0  0
   92.4510   99.9400  -44.6950 C   0  0  0  1  0  4  0  0  0  0  0  0
   91.8210   98.7070  -45.3220 C   0  0  0  1  0  4  0  0  0  0  0  0
   90.2114   94.7607  -46.8979 O   0  0  0  1  0  2  0  0  0  0  0  0
   92.1716   94.7163  -40.8942 I   0  0  0  1  0  1  0  0  0  0  0  0
   91.4738   91.8900  -46.2272 I   0  0  0  1  0  1  0  0  0  0  0  0
   90.6654   98.1803  -43.7171 H   0  0  0  1  0  1  0  0  0  0  0  0
   89.2888   94.5365  -46.9316 H   0  0  0  1  0  1  0  0  0  0  0  0
   92.1514   92.6892  -43.2922 H   0  0  0  1  0  1  0  0  0  0  0  0
   90.1132   97.1980  -46.4158 H   0  0  0  1  0  1  0  0  0  0  0  0
   88.8172   97.1707  -45.1702 H   0  0  0  1  0  1  0  0  0  0  0  0
   92.2147  102.2040  -43.2644 H   0  0  0  1  0  1  0  0  0  0  0  0
   88.6095   99.2654  -44.2068 H   0  0  0  1  0  1  0  0  0  0  0  0
   89.3242   99.8170  -45.7598 H   0  0  0  1  0  1  0  0  0  0  0  0
   90.7942   96.7575  -42.8147 H   0  0  0  1  0  1  0  0  0  0  0  0
   90.4413  100.4594  -42.9731 H   0  0  0  1  0  1  0  0  0  0  0  0
   89.4801  101.5838  -43.9926 H   0  0  0  1  0  1  0  0  0  0  0  0
   91.1614  101.2320  -45.8572 H   0  0  0  1  0  1  0  0  0  0  0  0
   90.8693  103.7017  -45.4320 H   0  0  0  1  0  1  0  0  0  0  0  0
   91.5197  104.4064  -43.9136 H   0  0  0  1  0  1  0  0  0  0  0  0
   89.2523  102.3738  -44.1326 H   0  0  0  1  0  1  0  0  0  0  0  0
   89.0834  104.1281  -43.7814 H   0  0  0  1  0  1  0  0  0  0  0  0
   89.9120  103.0521  -42.6053 H   0  0  0  1  0  1  0  0  0  0  0  0
   93.2011  102.8618  -45.9647 H   0  0  0  1  0  1  0  0  0  0  0  0
   94.0525  101.8512  -44.7476 H   0  0  0  1  0  1  0  0  0  0  0  0
   94.9777  104.1289  -44.8021 H   0  0  0  1  0  1  0  0  0  0  0  0
   94.1781  103.8057  -43.2273 H   0  0  0  1  0  1  0  0  0  0  0  0
   93.3525  104.8132  -44.4638 H   0  0  0  1  0  1  0  0  0  0  0  0
   92.6876   99.7454  -43.6396 H   0  0  0  1  0  1  0  0  0  0  0  0
   93.3718  100.2075  -45.2346 H   0  0  0  1  0  1  0  0  0  0  0  0
   91.6686   98.8910  -46.3961 H   0  0  0  1  0  1  0  0  0  0  0  0
   92.4999   97.8526  -45.1887 H   0  0  0  1  0  1  0  0  0  0  0  0
  1  6  1  0  0  0  0
  1  7  1  0  0  0  0
  1 18  1  0  0  0  0
  1 22  1  0  0  0  0
  2 12  1  0  0  0  0
  2 13  1  0  0  0  0
  2 15  1  0  0  0  0
  2 27  1  0  0  0  0
  3  5  2  0  0  0  0
  3  8  1  0  0  0  0
  3 20  1  0  0  0  0
  4  6  1  0  0  0  0
  4  8  2  0  0  0  0
  4 10  1  0  0  0  0
  5  9  1  0  0  0  0
  5 24  1  0  0  0  0
  6 25  1  0  0  0  0
  6 26  1  0  0  0  0
  7 11  1  0  0  0  0
  7 28  1  0  0  0  0
  7 29  1  0  0  0  0
  8 30  1  0  0  0  0
  9 10  2  0  0  0  0
  9 21  1  0  0  0  0
 10 19  1  0  0  0  0
 11 12  1  0  0  0  0
 11 31  1  0  0  0  0
 11 32  1  0  0  0  0
 12 17  1  0  0  0  0
 12 33  1  0  0  0  0
 13 14  1  0  0  0  0
 13 34  1  0  0  0  0
 13 35  1  0  0  0  0
 14 36  1  0  0  0  0
 14 37  1  0  0  0  0
 14 38  1  0  0  0  0
 15 16  1  0  0  0  0
 15 39  1  0  0  0  0
 15 40  1  0  0  0  0
 16 41  1  0  0  0  0
 16 42  1  0  0  0  0
 16 43  1  0  0  0  0
 17 18  1  0  0  0  0
 17 44  1  0  0  0  0
 17 45  1  0  0  0  0
 18 46  1  0  0  0  0
 18 47  1  0  0  0  0
 19 23  1  0  0  0  0
M  END
> <ConfScore>
-0.552988 

$$$$
4agm


 47 48  0  0  0  0  0  0  0  0999 V2000
   90.4980   98.3810  -44.6910 N   0  3  0  1  0  4  0  0  0  0  0  0
   92.0405  102.3576  -44.2461 N   0  3  0  1  0  4  0  0  0  0  0  0
   91.5929   94.7456  -42.9390 C   0  0  0  1  0  3  0  0  0  0  0  0
   90.4774   95.8983  -44.7669 C   0  0  0  1  0  3  0  0  0  0  0  0
   91.6872   93.5770  -43.7058 C   0  0  0  1  0  3  0  0  0  0  0  0
   89.9050   97.1660  -45.3350 C   0  0  0  1  0  4  0  0  0  0  0  0
   89.5430   99.5450  -44.7170 C   0  0  0  1  0  4  0  0  0  0  0  0
   90.9930   95.9002  -43.4646 C   0  0  0  1  0  3  0  0  0  0  0  0
   91.1613   93.5944  -45.0079 C   0  0  0  1  0  3  0  0  0  0  0  0
   90.5548   94.7320  -45.5729 C   0  0  0  1  0  3  0  0  0  0  0  0
   90.1750  100.7310  -44.0050 C   0  0  0  1  0  4  0  0  0  0  0  0
   91.4300  101.0810  -44.8020 C   0  0  0  1  0  4  0  0  0  0  0  0
   91.0149  103.4776  -44.2294 C   0  0  0  1  0  4  0  0  0  0  0  0
   89.7805  103.1467  -43.4084 C   0  0  0  1  0  4  0  0  0  0  0  0
   93.2913  102.7775  -44.9866 C   0  0  0  1  0  4  0  0  0  0  0  0
   93.8992  104.0685  -44.4547 C   0  0  0  1  0  4  0  0  0  0  0  0
   92.4510   99.9400  -44.6950 C   0  0  0  1  0  4  0  0  0  0  0  0
   91.8210   98.7070  -45.3220 C   0  0  0  1  0  4  0  0  0  0  0  0
   90.0598   94.7146  -46.8479 O   0  0  0  1  0  2  0  0  0  0  0  0
   92.3632   94.7700  -40.9675 I   0  0  0  1  0  1  0  0  0  0  0  0
   91.2865   91.8292  -46.1741 I   0  0  0  1  0  1  0  0  0  0  0  0
   90.6654   98.1803  -43.7171 H   0  0  0  1  0  1  0  0  0  0  0  0
   89.1314   94.5143  -46.8226 H   0  0  0  1  0  1  0  0  0  0  0  0
   92.1531   92.6841  -43.3051 H   0  0  0  1  0  1  0  0  0  0  0  0
   90.1132   97.1980  -46.4158 H   0  0  0  1  0  1  0  0  0  0  0  0
   88.8172   97.1707  -45.1702 H   0  0  0  1  0  1  0  0  0  0  0  0
   92.3060  102.1718  -43.2908 H   0  0  0  1  0  1  0  0  0  0  0  0
   88.6095   99.2654  -44.2068 H   0  0  0  1  0  1  0  0  0  0  0  0
   89.3242   99.8170  -45.7598 H   0  0  0  1  0  1  0  0  0  0  0  0
   90.9284   96.7979  -42.8598 H   0  0  0  1  0  1  0  0  0  0  0  0
   90.4413  100.4594  -42.9731 H   0  0  0  1  0  1  0  0  0  0  0  0
   89.4801  101.5838  -43.9926 H   0  0  0  1  0  1  0  0  0  0  0  0
   91.1614  101.2320  -45.8572 H   0  0  0  1  0  1  0  0  0  0  0  0
   90.7014  103.6821  -45.2646 H   0  0  0  1  0  1  0  0  0  0  0  0
   91.4853  104.3768  -43.8059 H   0  0  0  1  0  1  0  0  0  0  0  0
   89.2818  102.2640  -43.8362 H   0  0  0  1  0  1  0  0  0  0  0  0
   89.0888  104.0022  -43.4227 H   0  0  0  1  0  1  0  0  0  0  0  0
   90.0769  102.9326  -42.3703 H   0  0  0  1  0  1  0  0  0  0  0  0
   93.0374  102.9220  -46.0468 H   0  0  0  1  0  1  0  0  0  0  0  0
   94.0381  101.9750  -44.8938 H   0  0  0  1  0  1  0  0  0  0  0  0
   94.1520  103.9449  -43.3916 H   0  0  0  1  0  1  0  0  0  0  0  0
   93.1735  104.8881  -44.5649 H   0  0  0  1  0  1  0  0  0  0  0  0
   94.8103  104.3075  -45.0222 H   0  0  0  1  0  1  0  0  0  0  0  0
   92.6876   99.7454  -43.6396 H   0  0  0  1  0  1  0  0  0  0  0  0
   93.3718  100.2075  -45.2346 H   0  0  0  1  0  1  0  0  0  0  0  0
   91.6686   98.8910  -46.3961 H   0  0  0  1  0  1  0  0  0  0  0  0
   92.4999   97.8526  -45.1887 H   0  0  0  1  0  1  0  0  0  0  0  0
  1  6  1  0  0  0  0
  1  7  1  0  0  0  0
  1 18  1  0  0  0  0
  1 22  1  0  0  0  0
  2 12  1  0  0  0  0
  2 13  1  0  0  0  0
  2 15  1  0  0  0  0
  2 27  1  0  0  0  0
  3  5  2  0  0  0  0
  3  8  1  0  0  0  0
  3 20  1  0  0  0  0
  4  6  1  0  0  0  0
  4  8  2  0  0  0  0
  4 10  1  0  0  0  0
  5  9  1  0  0  0  0
  5 24  1  0  0  0  0
  6 25  1  0  0  0  0
  6 26  1  0  0  0  0
  7 11  1  0  0  0  0
  7 28  1  0  0  0  0
  7 29  1  0  0  0  0
  8 30  1  0  0  0  0
  9 10  2  0  0  0  0
  9 21  1  0  0  0  0
 10 19  1  0  0  0  0
 11 12  1  0  0  0  0
 11 31  1  0  0  0  0
 11 32  1  0  0  0  0
 12 17  1  0  0  0  0
 12 33  1  0  0  0  0
 13 14  1  0  0  0  0
 13 34  1  0  0  0  0
 13 35  1  0  0  0  0
 14 36  1  0  0  0  0
 14 37  1  0  0  0  0
 14 38  1  0  0  0  0
 15 16  1  0  0  0  0
 15 39  1  0  0  0  0
 15 40  1  0  0  0  0
 16 41  1  0  0  0  0
 16 42  1  0  0  0  0
 16 43  1  0  0  0  0
 17 18  1  0  0  0  0
 17 44  1  0  0  0  0
 17 45  1  0  0  0  0
 18 46  1  0  0  0  0
 18 47  1  0  0  0  0
 19 23  1  0  0  0  0
M  END
> <ConfScore>
-0.552988 

$$$$
4agm


 47 48  0  0  0  0  0  0  0  0999 V2000
   90.4980   98.3810  -44.6910 N   0  3  0  1  0  4  0  0  0  0  0  0
   92.0405  102.3576  -44.2461 N   0  3  0  1  0  4  0  0  0  0  0  0
   91.6034   93.7694  -45.1720 C   0  0  0  1  0  3  0  0  0  0  0  0
   90.4948   95.8988  -44.7838 C   0  0  0  1  0  3  0  0  0  0  0  0
   91.4953   93.4418  -43.8143 C   0  0  0  1  0  3  0  0  0  0  0  0
   89.9050   97.1660  -45.3350 C   0  0  0  1  0  4  0  0  0  0  0  0
   89.5430   99.5450  -44.7170 C   0  0  0  1  0  4  0  0  0  0  0  0
   91.1062   94.9892  -45.6559 C   0  0  0  1  0  3  0  0  0  0  0  0
   90.8820   94.3685  -42.9556 C   0  0  0  1  0  3  0  0  0  0  0  0
   90.3680   95.6007  -43.4014 C   0  0  0  1  0  3  0  0  0  0  0  0
   90.1750  100.7310  -44.0050 C   0  0  0  1  0  4  0  0  0  0  0  0
   91.4300  101.0810  -44.8020 C   0  0  0  1  0  4  0  0  0  0  0  0
   92.4671  102.1613  -42.8017 C   0  0  0  1  0  4  0  0  0  0  0  0
   93.4462  101.0146  -42.6173 C   0  0  0  1  0  4  0  0  0  0  0  0
   91.1224  103.5522  -44.3836 C   0  0  0  1  0  4  0  0  0  0  0  0
   90.8135  103.9087  -45.8316 C   0  0  0  1  0  4  0  0  0  0  0  0
   92.4510   99.9400  -44.6950 C   0  0  0  1  0  4  0  0  0  0  0  0
   91.8210   98.7070  -45.3220 C   0  0  0  1  0  4  0  0  0  0  0  0
   89.7702   96.4763  -42.5371 O   0  0  0  1  0  2  0  0  0  0  0  0
   92.5262   92.4106  -46.5073 I   0  0  0  1  0  1  0  0  0  0  0  0
   90.7232   93.8905  -40.8971 I   0  0  0  1  0  1  0  0  0  0  0  0
   90.6654   98.1803  -43.7171 H   0  0  0  1  0  1  0  0  0  0  0  0
   90.4107   97.1116  -42.2392 H   0  0  0  1  0  1  0  0  0  0  0  0
   91.8746   92.4991  -43.4369 H   0  0  0  1  0  1  0  0  0  0  0  0
   90.0976   97.2070  -46.4183 H   0  0  0  1  0  1  0  0  0  0  0  0
   88.8196   97.1614  -45.1549 H   0  0  0  1  0  1  0  0  0  0  0  0
   92.8698  102.5533  -44.7860 H   0  0  0  1  0  1  0  0  0  0  0  0
   88.6095   99.2654  -44.2068 H   0  0  0  1  0  1  0  0  0  0  0  0
   89.3242   99.8170  -45.7598 H   0  0  0  1  0  1  0  0  0  0  0  0
   91.1958   95.2285  -46.7097 H   0  0  0  1  0  1  0  0  0  0  0  0
   90.4413  100.4594  -42.9731 H   0  0  0  1  0  1  0  0  0  0  0  0
   89.4801  101.5838  -43.9926 H   0  0  0  1  0  1  0  0  0  0  0  0
   91.1614  101.2320  -45.8572 H   0  0  0  1  0  1  0  0  0  0  0  0
   91.5713  101.9567  -42.1957 H   0  0  0  1  0  1  0  0  0  0  0  0
   92.9433  103.0874  -42.4484 H   0  0  0  1  0  1  0  0  0  0  0  0
   92.9746  100.0746  -42.9410 H   0  0  0  1  0  1  0  0  0  0  0  0
   93.7275  100.9380  -41.5564 H   0  0  0  1  0  1  0  0  0  0  0  0
   94.3465  101.2000  -43.2225 H   0  0  0  1  0  1  0  0  0  0  0  0
   91.6026  104.4184  -43.9056 H   0  0  0  1  0  1  0  0  0  0  0  0
   90.1763  103.3266  -43.8694 H   0  0  0  1  0  1  0  0  0  0  0  0
   90.1296  104.7694  -45.8603 H   0  0  0  1  0  1  0  0  0  0  0  0
   90.3396  103.0486  -46.3278 H   0  0  0  1  0  1  0  0  0  0  0  0
   91.7463  104.1648  -46.3547 H   0  0  0  1  0  1  0  0  0  0  0  0
   92.6876   99.7454  -43.6396 H   0  0  0  1  0  1  0  0  0  0  0  0
   93.3718  100.2075  -45.2346 H   0  0  0  1  0  1  0  0  0  0  0  0
   91.6686   98.8910  -46.3961 H   0  0  0  1  0  1  0  0  0  0  0  0
   92.4999   97.8526  -45.1887 H   0  0  0  1  0  1  0  0  0  0  0  0
  1  6  1  0  0  0  0
  1  7  1  0  0  0  0
  1 18  1  0  0  0  0
  1 22  1  0  0  0  0
  2 12  1  0  0  0  0
  2 13  1  0  0  0  0
  2 15  1  0  0  0  0
  2 27  1  0  0  0  0
  3  5  2  0  0  0  0
  3  8  1  0  0  0  0
  3 20  1  0  0  0  0
  4  6  1  0  0  0  0
  4  8  2  0  0  0  0
  4 10  1  0  0  0  0
  5  9  1  0  0  0  0
  5 24  1  0  0  0  0
  6 25  1  0  0  0  0
  6 26  1  0  0  0  0
  7 11  1  0  0  0  0
  7 28  1  0  0  0  0
  7 29  1  0  0  0  0
  8 30  1  0  0  0  0
  9 10  2  0  0  0  0
  9 21  1  0  0  0  0
 10 19  1  0  0  0  0
 11 12  1  0  0  0  0
 11 31  1  0  0  0  0
 11 32  1  0  0  0  0
 12 17  1  0  0  0  0
 12 33  1  0  0  0  0
 13 14  1  0  0  0  0
 13 34  1  0  0  0  0
 13 35  1  0  0  0  0
 14 36  1  0  0  0  0
 14 37  1  0  0  0  0
 14 38  1  0  0  0  0
 15 16  1  0  0  0  0
 15 39  1  0  0  0  0
 15 40  1  0  0  0  0
 16 41  1  0  0  0  0
 16 42  1  0  0  0  0
 16 43  1  0  0  0  0
 17 18  1  0  0  0  0
 17 44  1  0  0  0  0
 17 45  1  0  0  0  0
 18 46  1  0  0  0  0
 18 47  1  0  0  0  0
 19 23  1  0  0  0  0
M  END
> <ConfScore>
-0.551879 

$$$$
4agm


 47 48  0  0  0  0  0  0  0  0999 V2000
   90.4980   98.3810  -44.6910 N   0  3  0  1  0  4  0  0  0  0  0  0
   92.0405  102.3576  -44.2461 N   0  3  0  1  0  4  0  0  0  0  0  0
   91.6034   93.7694  -45.1720 C   0  0  0  1  0  3  0  0  0  0  0  0
   90.4948   95.8988  -44.7838 C   0  0  0  1  0  3  0  0  0  0  0  0
   91.4953   93.4418  -43.8143 C   0  0  0  1  0  3  0  0  0  0  0  0
   89.9050   97.1660  -45.3350 C   0  0  0  1  0  4  0  0  0  0  0  0
   89.5430   99.5450  -44.7170 C   0  0  0  1  0  4  0  0  0  0  0  0
   91.1062   94.9892  -45.6559 C   0  0  0  1  0  3  0  0  0  0  0  0
   90.8820   94.3685  -42.9556 C   0  0  0  1  0  3  0  0  0  0  0  0
   90.3680   95.6007  -43.4014 C   0  0  0  1  0  3  0  0  0  0  0  0
   90.1750  100.7310  -44.0050 C   0  0  0  1  0  4  0  0  0  0  0  0
   91.4300  101.0810  -44.8020 C   0  0  0  1  0  4  0  0  0  0  0  0
   92.4671  102.1613  -42.8017 C   0  0  0  1  0  4  0  0  0  0  0  0
   93.4462  101.0146  -42.6173 C   0  0  0  1  0  4  0  0  0  0  0  0
   91.1224  103.5522  -44.3836 C   0  0  0  1  0  4  0  0  0  0  0  0
   90.8135  103.9087  -45.8316 C   0  0  0  1  0  4  0  0  0  0  0  0
   92.4510   99.9400  -44.6950 C   0  0  0  1  0  4  0  0  0  0  0  0
   91.8210   98.7070  -45.3220 C   0  0  0  1  0  4  0  0  0  0  0  0
   89.7702   96.4763  -42.5371 O   0  0  0  1  0  2  0  0  0  0  0  0
   92.5262   92.4106  -46.5073 I   0  0  0  1  0  1  0  0  0  0  0  0
   90.7232   93.8905  -40.8971 I   0  0  0  1  0  1  0  0  0  0  0  0
   90.6654   98.1803  -43.7171 H   0  0  0  1  0  1  0  0  0  0  0  0
   90.4107   97.1116  -42.2392 H   0  0  0  1  0  1  0  0  0  0  0  0
   91.8746   92.4991  -43.4369 H   0  0  0  1  0  1  0  0  0  0  0  0
   90.0976   97.2070  -46.4183 H   0  0  0  1  0  1  0  0  0  0  0  0
   88.8196   97.1614  -45.1549 H   0  0  0  1  0  1  0  0  0  0  0  0
   92.8698  102.5533  -44.7860 H   0  0  0  1  0  1  0  0  0  0  0  0
   88.6095   99.2654  -44.2068 H   0  0  0  1  0  1  0  0  0  0  0  0
   89.3242   99.8170  -45.7598 H   0  0  0  1  0  1  0  0  0  0  0  0
   91.1958   95.2285  -46.7097 H   0  0  0  1  0  1  0  0  0  0  0  0
   90.4413  100.4594  -42.9731 H   0  0  0  1  0  1  0  0  0  0  0  0
   89.4801  101.5838  -43.9926 H   0  0  0  1  0  1  0  0  0  0  0  0
   91.1614  101.2320  -45.8572 H   0  0  0  1  0  1  0  0  0  0  0  0
   91.5713  101.9567  -42.1957 H   0  0  0  1  0  1  0  0  0  0  0  0
   92.9433  103.0874  -42.4484 H   0  0  0  1  0  1  0  0  0  0  0  0
   94.3462  101.2005  -43.2225 H   0  0  0  1  0  1  0  0  0  0  0  0
   92.9755  100.0735  -42.9386 H   0  0  0  1  0  1  0  0  0  0  0  0
   93.7277  100.9397  -41.5559 H   0  0  0  1  0  1  0  0  0  0  0  0
   91.6026  104.4184  -43.9056 H   0  0  0  1  0  1  0  0  0  0  0  0
   90.1763  103.3266  -43.8694 H   0  0  0  1  0  1  0  0  0  0  0  0
   90.1296  104.7694  -45.8603 H   0  0  0  1  0  1  0  0  0  0  0  0
   90.3396  103.0486  -46.3278 H   0  0  0  1  0  1  0  0  0  0  0  0
   91.7463  104.1648  -46.3547 H   0  0  0  1  0  1  0  0  0  0  0  0
   92.6876   99.7454  -43.6396 H   0  0  0  1  0  1  0  0  0  0  0  0
   93.3718  100.2075  -45.2346 H   0  0  0  1  0  1  0  0  0  0  0  0
   91.6686   98.8910  -46.3961 H   0  0  0  1  0  1  0  0  0  0  0  0
   92.4999   97.8526  -45.1887 H   0  0  0  1  0  1  0  0  0  0  0  0
  1  6  1  0  0  0  0
  1  7  1  0  0  0  0
  1 18  1  0  0  0  0
  1 22  1  0  0  0  0
  2 12  1  0  0  0  0
  2 13  1  0  0  0  0
  2 15  1  0  0  0  0
  2 27  1  0  0  0  0
  3  5  2  0  0  0  0
  3  8  1  0  0  0  0
  3 20  1  0  0  0  0
  4  6  1  0  0  0  0
  4  8  2  0  0  0  0
  4 10  1  0  0  0  0
  5  9  1  0  0  0  0
  5 24  1  0  0  0  0
  6 25  1  0  0  0  0
  6 26  1  0  0  0  0
  7 11  1  0  0  0  0
  7 28  1  0  0  0  0
  7 29  1  0  0  0  0
  8 30  1  0  0  0  0
  9 10  2  0  0  0  0
  9 21  1  0  0  0  0
 10 19  1  0  0  0  0
 11 12  1  0  0  0  0
 11 31  1  0  0  0  0
 11 32  1  0  0  0  0
 12 17  1  0  0  0  0
 12 33  1  0  0  0  0
 13 14  1  0  0  0  0
 13 34  1  0  0  0  0
 13 35  1  0  0  0  0
 14 36  1  0  0  0  0
 14 37  1  0  0  0  0
 14 38  1  0  0  0  0
 15 16  1  0  0  0  0
 15 39  1  0  0  0  0
 15 40  1  0  0  0  0
 16 41  1  0  0  0  0
 16 42  1  0  0  0  0
 16 43  1  0  0  0  0
 17 18  1  0  0  0  0
 17 44  1  0  0  0  0
 17 45  1  0  0  0  0
 18 46  1  0  0  0  0
 18 47  1  0  0  0  0
 19 23  1  0  0  0  0
M  END
> <ConfScore>
-0.551879 

$$$$
4agm


 47 48  0  0  0  0  0  0  0  0999 V2000
   90.4980   98.3810  -44.6910 N   0  3  0  1  0  4  0  0  0  0  0  0
   92.0405  102.3576  -44.2461 N   0  3  0  1  0  4  0  0  0  0  0  0
   91.6447   94.7420  -42.9800 C   0  0  0  1  0  3  0  0  0  0  0  0
   90.4948   95.8988  -44.7838 C   0  0  0  1  0  3  0  0  0  0  0  0
   91.7368   93.5795  -43.7561 C   0  0  0  1  0  3  0  0  0  0  0  0
   89.9050   97.1660  -45.3350 C   0  0  0  1  0  4  0  0  0  0  0  0
   89.5430   99.5450  -44.7170 C   0  0  0  1  0  4  0  0  0  0  0  0
   91.0289   95.8957  -43.4890 C   0  0  0  1  0  3  0  0  0  0  0  0
   91.1924   93.6018  -45.0506 C   0  0  0  1  0  3  0  0  0  0  0  0
   90.5695   94.7387  -45.5990 C   0  0  0  1  0  3  0  0  0  0  0  0
   90.1750  100.7310  -44.0050 C   0  0  0  1  0  4  0  0  0  0  0  0
   91.4300  101.0810  -44.8020 C   0  0  0  1  0  4  0  0  0  0  0  0
   93.2599  102.7635  -45.0554 C   0  0  0  1  0  4  0  0  0  0  0  0
   92.9623  102.9513  -46.5330 C   0  0  0  1  0  4  0  0  0  0  0  0
   92.3758  102.2520  -42.7745 C   0  0  0  1  0  4  0  0  0  0  0  0
   92.9409  103.5412  -42.1933 C   0  0  0  1  0  4  0  0  0  0  0  0
   92.4510   99.9400  -44.6950 C   0  0  0  1  0  4  0  0  0  0  0  0
   91.8210   98.7070  -45.3220 C   0  0  0  1  0  4  0  0  0  0  0  0
   90.0566   94.7263  -46.8669 O   0  0  0  1  0  2  0  0  0  0  0  0
   92.4427   94.7587  -41.0194 I   0  0  0  1  0  1  0  0  0  0  0  0
   91.3142   91.8457  -46.2306 I   0  0  0  1  0  1  0  0  0  0  0  0
   90.6654   98.1803  -43.7171 H   0  0  0  1  0  1  0  0  0  0  0  0
   89.1302   94.5188  -46.8299 H   0  0  0  1  0  1  0  0  0  0  0  0
   92.2150   92.6874  -43.3684 H   0  0  0  1  0  1  0  0  0  0  0  0
   90.0976   97.2070  -46.4183 H   0  0  0  1  0  1  0  0  0  0  0  0
   88.8196   97.1614  -45.1549 H   0  0  0  1  0  1  0  0  0  0  0  0
   91.3512  103.0874  -44.3447 H   0  0  0  1  0  1  0  0  0  0  0  0
   88.6095   99.2654  -44.2068 H   0  0  0  1  0  1  0  0  0  0  0  0
   89.3242   99.8170  -45.7598 H   0  0  0  1  0  1  0  0  0  0  0  0
   90.9662   96.7886  -42.8771 H   0  0  0  1  0  1  0  0  0  0  0  0
   90.4413  100.4594  -42.9731 H   0  0  0  1  0  1  0  0  0  0  0  0
   89.4801  101.5838  -43.9926 H   0  0  0  1  0  1  0  0  0  0  0  0
   91.1614  101.2320  -45.8572 H   0  0  0  1  0  1  0  0  0  0  0  0
   94.0274  101.9815  -44.9502 H   0  0  0  1  0  1  0  0  0  0  0  0
   93.6469  103.7113  -44.6538 H   0  0  0  1  0  1  0  0  0  0  0  0
   92.2047  103.7396  -46.6568 H   0  0  0  1  0  1  0  0  0  0  0  0
   92.5835  102.0084  -46.9548 H   0  0  0  1  0  1  0  0  0  0  0  0
   93.8841  103.2435  -47.0587 H   0  0  0  1  0  1  0  0  0  0  0  0
   93.1205  101.4536  -42.6425 H   0  0  0  1  0  1  0  0  0  0  0  0
   91.4585  101.9932  -42.2250 H   0  0  0  1  0  1  0  0  0  0  0  0
   93.1444  103.4029  -41.1215 H   0  0  0  1  0  1  0  0  0  0  0  0
   92.2107  104.3536  -42.3249 H   0  0  0  1  0  1  0  0  0  0  0  0
   93.8749  103.8008  -42.7128 H   0  0  0  1  0  1  0  0  0  0  0  0
   92.6876   99.7454  -43.6396 H   0  0  0  1  0  1  0  0  0  0  0  0
   93.3718  100.2075  -45.2346 H   0  0  0  1  0  1  0  0  0  0  0  0
   91.6686   98.8910  -46.3961 H   0  0  0  1  0  1  0  0  0  0  0  0
   92.4999   97.8526  -45.1887 H   0  0  0  1  0  1  0  0  0  0  0  0
  1  6  1  0  0  0  0
  1  7  1  0  0  0  0
  1 18  1  0  0  0  0
  1 22  1  0  0  0  0
  2 12  1  0  0  0  0
  2 13  1  0  0  0  0
  2 15  1  0  0  0  0
  2 27  1  0  0  0  0
  3  5  2  0  0  0  0
  3  8  1  0  0  0  0
  3 20  1  0  0  0  0
  4  6  1  0  0  0  0
  4  8  2  0  0  0  0
  4 10  1  0  0  0  0
  5  9  1  0  0  0  0
  5 24  1  0  0  0  0
  6 25  1  0  0  0  0
  6 26  1  0  0  0  0
  7 11  1  0  0  0  0
  7 28  1  0  0  0  0
  7 29  1  0  0  0  0
  8 30  1  0  0  0  0
  9 10  2  0  0  0  0
  9 21  1  0  0  0  0
 10 19  1  0  0  0  0
 11 12  1  0  0  0  0
 11 31  1  0  0  0  0
 11 32  1  0  0  0  0
 12 17  1  0  0  0  0
 12 33  1  0  0  0  0
 13 14  1  0  0  0  0
 13 34  1  0  0  0  0
 13 35  1  0  0  0  0
 14 36  1  0  0  0  0
 14 37  1  0  0  0  0
 14 38  1  0  0  0  0
 15 16  1  0  0  0  0
 15 39  1  0  0  0  0
 15 40  1  0  0  0  0
 16 41  1  0  0  0  0
 16 42  1  0  0  0  0
 16 43  1  0  0  0  0
 17 18  1  0  0  0  0
 17 44  1  0  0  0  0
 17 45  1  0  0  0  0
 18 46  1  0  0  0  0
 18 47  1  0  0  0  0
 19 23  1  0  0  0  0
M  END
> <ConfScore>
-0.550613 

$$$$
4agm


 47 48  0  0  0  0  0  0  0  0999 V2000
   90.4980   98.3810  -44.6910 N   0  3  0  1  0  4  0  0  0  0  0  0
   92.0405  102.3576  -44.2461 N   0  3  0  1  0  4  0  0  0  0  0  0
   91.6447   94.7420  -42.9800 C   0  0  0  1  0  3  0  0  0  0  0  0
   90.4948   95.8988  -44.7838 C   0  0  0  1  0  3  0  0  0  0  0  0
   91.7368   93.5795  -43.7561 C   0  0  0  1  0  3  0  0  0  0  0  0
   89.9050   97.1660  -45.3350 C   0  0  0  1  0  4  0  0  0  0  0  0
   89.5430   99.5450  -44.7170 C   0  0  0  1  0  4  0  0  0  0  0  0
   91.0289   95.8957  -43.4890 C   0  0  0  1  0  3  0  0  0  0  0  0
   91.1924   93.6018  -45.0506 C   0  0  0  1  0  3  0  0  0  0  0  0
   90.5695   94.7387  -45.5990 C   0  0  0  1  0  3  0  0  0  0  0  0
   90.1750  100.7310  -44.0050 C   0  0  0  1  0  4  0  0  0  0  0  0
   91.4300  101.0810  -44.8020 C   0  0  0  1  0  4  0  0  0  0  0  0
   93.2668  102.7571  -45.0481 C   0  0  0  1  0  4  0  0  0  0  0  0
   92.9802  102.9408  -46.5285 C   0  0  0  1  0  4  0  0  0  0  0  0
   92.3652  102.2560  -42.7718 C   0  0  0  1  0  4  0  0  0  0  0  0
   92.9301  103.5454  -42.1910 C   0  0  0  1  0  4  0  0  0  0  0  0
   92.4510   99.9400  -44.6950 C   0  0  0  1  0  4  0  0  0  0  0  0
   91.8210   98.7070  -45.3220 C   0  0  0  1  0  4  0  0  0  0  0  0
   90.0566   94.7263  -46.8669 O   0  0  0  1  0  2  0  0  0  0  0  0
   92.4427   94.7587  -41.0194 I   0  0  0  1  0  1  0  0  0  0  0  0
   91.3142   91.8457  -46.2306 I   0  0  0  1  0  1  0  0  0  0  0  0
   90.6654   98.1803  -43.7171 H   0  0  0  1  0  1  0  0  0  0  0  0
   89.1302   94.5188  -46.8299 H   0  0  0  1  0  1  0  0  0  0  0  0
   92.2150   92.6874  -43.3684 H   0  0  0  1  0  1  0  0  0  0  0  0
   90.0976   97.2070  -46.4183 H   0  0  0  1  0  1  0  0  0  0  0  0
   88.8196   97.1614  -45.1549 H   0  0  0  1  0  1  0  0  0  0  0  0
   91.3542  103.0892  -44.3520 H   0  0  0  1  0  1  0  0  0  0  0  0
   88.6095   99.2654  -44.2068 H   0  0  0  1  0  1  0  0  0  0  0  0
   89.3242   99.8170  -45.7598 H   0  0  0  1  0  1  0  0  0  0  0  0
   90.9662   96.7886  -42.8771 H   0  0  0  1  0  1  0  0  0  0  0  0
   90.4413  100.4594  -42.9731 H   0  0  0  1  0  1  0  0  0  0  0  0
   89.4801  101.5838  -43.9926 H   0  0  0  1  0  1  0  0  0  0  0  0
   91.1614  101.2320  -45.8572 H   0  0  0  1  0  1  0  0  0  0  0  0
   94.0311  101.9731  -44.9349 H   0  0  0  1  0  1  0  0  0  0  0  0
   93.6539  103.7051  -44.6470 H   0  0  0  1  0  1  0  0  0  0  0  0
   93.9027  103.2457  -47.0451 H   0  0  0  1  0  1  0  0  0  0  0  0
   92.2115  103.7167  -46.6609 H   0  0  0  1  0  1  0  0  0  0  0  0
   92.6194  101.9915  -46.9528 H   0  0  0  1  0  1  0  0  0  0  0  0
   93.1064  101.4558  -42.6319 H   0  0  0  1  0  1  0  0  0  0  0  0
   91.4432  102.0018  -42.2280 H   0  0  0  1  0  1  0  0  0  0  0  0
   93.1257  103.4101  -41.1174 H   0  0  0  1  0  1  0  0  0  0  0  0
   92.2033  104.3596  -42.3304 H   0  0  0  1  0  1  0  0  0  0  0  0
   93.8685  103.8004  -42.7047 H   0  0  0  1  0  1  0  0  0  0  0  0
   92.6876   99.7454  -43.6396 H   0  0  0  1  0  1  0  0  0  0  0  0
   93.3718  100.2075  -45.2346 H   0  0  0  1  0  1  0  0  0  0  0  0
   91.6686   98.8910  -46.3961 H   0  0  0  1  0  1  0  0  0  0  0  0
   92.4999   97.8526  -45.1887 H   0  0  0  1  0  1  0  0  0  0  0  0
  1  6  1  0  0  0  0
  1  7  1  0  0  0  0
  1 18  1  0  0  0  0
  1 22  1  0  0  0  0
  2 12  1  0  0  0  0
  2 13  1  0  0  0  0
  2 15  1  0  0  0  0
  2 27  1  0  0  0  0
  3  5  2  0  0  0  0
  3  8  1  0  0  0  0
  3 20  1  0  0  0  0
  4  6  1  0  0  0  0
  4  8  2  0  0  0  0
  4 10  1  0  0  0  0
  5  9  1  0  0  0  0
  5 24  1  0  0  0  0
  6 25  1  0  0  0  0
  6 26  1  0  0  0  0
  7 11  1  0  0  0  0
  7 28  1  0  0  0  0
  7 29  1  0  0  0  0
  8 30  1  0  0  0  0
  9 10  2  0  0  0  0
  9 21  1  0  0  0  0
 10 19  1  0  0  0  0
 11 12  1  0  0  0  0
 11 31  1  0  0  0  0
 11 32  1  0  0  0  0
 12 17  1  0  0  0  0
 12 33  1  0  0  0  0
 13 14  1  0  0  0  0
 13 34  1  0  0  0  0
 13 35  1  0  0  0  0
 14 36  1  0  0  0  0
 14 37  1  0  0  0  0
 14 38  1  0  0  0  0
 15 16  1  0  0  0  0
 15 39  1  0  0  0  0
 15 40  1  0  0  0  0
 16 41  1  0  0  0  0
 16 42  1  0  0  0  0
 16 43  1  0  0  0  0
 17 18  1  0  0  0  0
 17 44  1  0  0  0  0
 17 45  1  0  0  0  0
 18 46  1  0  0  0  0
 18 47  1  0  0  0  0
 19 23  1  0  0  0  0
M  END
> <ConfScore>
-0.550613 

$$$$
4agm


 47 48  0  0  0  0  0  0  0  0999 V2000
   90.4980   98.3810  -44.6910 N   0  3  0  1  0  4  0  0  0  0  0  0
   92.0405  102.3576  -44.2461 N   0  3  0  1  0  4  0  0  0  0  0  0
   90.9135   96.2962  -48.8951 C   0  0  0  1  0  3  0  0  0  0  0  0
   90.0146   97.2191  -46.8325 C   0  0  0  1  0  3  0  0  0  0  0  0
   90.3634   97.3527  -49.6323 C   0  0  0  1  0  3  0  0  0  0  0  0
   89.9050   97.1660  -45.3350 C   0  0  0  1  0  4  0  0  0  0  0  0
   89.5430   99.5450  -44.7170 C   0  0  0  1  0  4  0  0  0  0  0  0
   90.7422   96.2283  -47.5040 C   0  0  0  1  0  3  0  0  0  0  0  0
   89.6346   98.3343  -48.9411 C   0  0  0  1  0  3  0  0  0  0  0  0
   89.4423   98.3045  -47.5470 C   0  0  0  1  0  3  0  0  0  0  0  0
   90.1750  100.7310  -44.0050 C   0  0  0  1  0  4  0  0  0  0  0  0
   91.4300  101.0810  -44.8020 C   0  0  0  1  0  4  0  0  0  0  0  0
   91.0627  103.5137  -44.3648 C   0  0  0  1  0  4  0  0  0  0  0  0
   90.6516  103.8051  -45.7978 C   0  0  0  1  0  4  0  0  0  0  0  0
   93.3664  102.6994  -44.8897 C   0  0  0  1  0  4  0  0  0  0  0  0
   93.2814  102.8364  -46.4040 C   0  0  0  1  0  4  0  0  0  0  0  0
   92.4510   99.9400  -44.6950 C   0  0  0  1  0  4  0  0  0  0  0  0
   91.8210   98.7070  -45.3220 C   0  0  0  1  0  4  0  0  0  0  0  0
   88.7323   99.2823  -46.9061 O   0  0  0  1  0  2  0  0  0  0  0  0
   92.0146   94.7865  -49.8898 I   0  0  0  1  0  1  0  0  0  0  0  0
   88.7866   99.9315  -50.0461 I   0  0  0  1  0  1  0  0  0  0  0  0
   90.6654   98.1803  -43.7171 H   0  0  0  1  0  1  0  0  0  0  0  0
   88.9393   99.2655  -45.9790 H   0  0  0  1  0  1  0  0  0  0  0  0
   90.4965   97.4111  -50.7064 H   0  0  0  1  0  1  0  0  0  0  0  0
   88.8415   97.0988  -45.0577 H   0  0  0  1  0  1  0  0  0  0  0  0
   90.4367   96.2744  -44.9704 H   0  0  0  1  0  1  0  0  0  0  0  0
   92.2147  102.2040  -43.2644 H   0  0  0  1  0  1  0  0  0  0  0  0
   88.6095   99.2654  -44.2068 H   0  0  0  1  0  1  0  0  0  0  0  0
   89.3242   99.8170  -45.7598 H   0  0  0  1  0  1  0  0  0  0  0  0
   91.1750   95.4052  -46.9464 H   0  0  0  1  0  1  0  0  0  0  0  0
   90.4413  100.4594  -42.9731 H   0  0  0  1  0  1  0  0  0  0  0  0
   89.4801  101.5838  -43.9926 H   0  0  0  1  0  1  0  0  0  0  0  0
   91.1614  101.2320  -45.8572 H   0  0  0  1  0  1  0  0  0  0  0  0
   91.5336  104.4162  -43.9460 H   0  0  0  1  0  1  0  0  0  0  0  0
   90.1605  103.2700  -43.7853 H   0  0  0  1  0  1  0  0  0  0  0  0
   91.5408  104.0780  -46.3857 H   0  0  0  1  0  1  0  0  0  0  0  0
   89.9322  104.6375  -45.8121 H   0  0  0  1  0  1  0  0  0  0  0  0
   90.1843  102.9096  -46.2347 H   0  0  0  1  0  1  0  0  0  0  0  0
   94.0860  101.9028  -44.6510 H   0  0  0  1  0  1  0  0  0  0  0  0
   93.7220  103.6529  -44.4716 H   0  0  0  1  0  1  0  0  0  0  0  0
   94.2700  103.1030  -46.8049 H   0  0  0  1  0  1  0  0  0  0  0  0
   92.5582  103.6249  -46.6607 H   0  0  0  1  0  1  0  0  0  0  0  0
   92.9537  101.8824  -46.8421 H   0  0  0  1  0  1  0  0  0  0  0  0
   92.6876   99.7454  -43.6396 H   0  0  0  1  0  1  0  0  0  0  0  0
   93.3718  100.2075  -45.2346 H   0  0  0  1  0  1  0  0  0  0  0  0
   91.6686   98.8910  -46.3961 H   0  0  0  1  0  1  0  0  0  0  0  0
   92.4999   97.8526  -45.1887 H   0  0  0  1  0  1  0  0  0  0  0  0
  1  6  1  0  0  0  0
  1  7  1  0  0  0  0
  1 18  1  0  0  0  0
  1 22  1  0  0  0  0
  2 12  1  0  0  0  0
  2 13  1  0  0  0  0
  2 15  1  0  0  0  0
  2 27  1  0  0  0  0
  3  5  2  0  0  0  0
  3  8  1  0  0  0  0
  3 20  1  0  0  0  0
  4  6  1  0  0  0  0
  4  8  2  0  0  0  0
  4 10  1  0  0  0  0
  5  9  1  0  0  0  0
  5 24  1  0  0  0  0
  6 25  1  0  0  0  0
  6 26  1  0  0  0  0
  7 11  1  0  0  0  0
  7 28  1  0  0  0  0
  7 29  1  0  0  0  0
  8 30  1  0  0  0  0
  9 10  2  0  0  0  0
  9 21  1  0  0  0  0
 10 19  1  0  0  0  0
 11 12  1  0  0  0  0
 11 31  1  0  0  0  0
 11 32  1  0  0  0  0
 12 17  1  0  0  0  0
 12 33  1  0  0  0  0
 13 14  1  0  0  0  0
 13 34  1  0  0  0  0
 13 35  1  0  0  0  0
 14 36  1  0  0  0  0
 14 37  1  0  0  0  0
 14 38  1  0  0  0  0
 15 16  1  0  0  0  0
 15 39  1  0  0  0  0
 15 40  1  0  0  0  0
 16 41  1  0  0  0  0
 16 42  1  0  0  0  0
 16 43  1  0  0  0  0
 17 18  1  0  0  0  0
 17 44  1  0  0  0  0
 17 45  1  0  0  0  0
 18 46  1  0  0  0  0
 18 47  1  0  0  0  0
 19 23  1  0  0  0  0
M  END
> <ConfScore>
-0.545775 

$$$$
4agm


 47 48  0  0  0  0  0  0  0  0999 V2000
   90.4980   98.3810  -44.6910 N   0  3  0  1  0  4  0  0  0  0  0  0
   92.0405  102.3576  -44.2461 N   0  3  0  1  0  4  0  0  0  0  0  0
   90.9135   96.2962  -48.8951 C   0  0  0  1  0  3  0  0  0  0  0  0
   90.0146   97.2191  -46.8325 C   0  0  0  1  0  3  0  0  0  0  0  0
   90.3634   97.3527  -49.6323 C   0  0  0  1  0  3  0  0  0  0  0  0
   89.9050   97.1660  -45.3350 C   0  0  0  1  0  4  0  0  0  0  0  0
   89.5430   99.5450  -44.7170 C   0  0  0  1  0  4  0  0  0  0  0  0
   90.7422   96.2283  -47.5040 C   0  0  0  1  0  3  0  0  0  0  0  0
   89.6346   98.3343  -48.9411 C   0  0  0  1  0  3  0  0  0  0  0  0
   89.4423   98.3045  -47.5470 C   0  0  0  1  0  3  0  0  0  0  0  0
   90.1750  100.7310  -44.0050 C   0  0  0  1  0  4  0  0  0  0  0  0
   91.4300  101.0810  -44.8020 C   0  0  0  1  0  4  0  0  0  0  0  0
   91.0627  103.5137  -44.3648 C   0  0  0  1  0  4  0  0  0  0  0  0
   90.6516  103.8051  -45.7978 C   0  0  0  1  0  4  0  0  0  0  0  0
   93.3664  102.6994  -44.8897 C   0  0  0  1  0  4  0  0  0  0  0  0
   93.2814  102.8364  -46.4040 C   0  0  0  1  0  4  0  0  0  0  0  0
   92.4510   99.9400  -44.6950 C   0  0  0  1  0  4  0  0  0  0  0  0
   91.8210   98.7070  -45.3220 C   0  0  0  1  0  4  0  0  0  0  0  0
   88.7323   99.2823  -46.9061 O   0  0  0  1  0  2  0  0  0  0  0  0
   92.0146   94.7865  -49.8898 I   0  0  0  1  0  1  0  0  0  0  0  0
   88.7866   99.9315  -50.0461 I   0  0  0  1  0  1  0  0  0  0  0  0
   90.6654   98.1803  -43.7171 H   0  0  0  1  0  1  0  0  0  0  0  0
   88.9393   99.2655  -45.9790 H   0  0  0  1  0  1  0  0  0  0  0  0
   90.4965   97.4111  -50.7064 H   0  0  0  1  0  1  0  0  0  0  0  0
   88.8415   97.0988  -45.0577 H   0  0  0  1  0  1  0  0  0  0  0  0
   90.4367   96.2744  -44.9704 H   0  0  0  1  0  1  0  0  0  0  0  0
   92.2147  102.2040  -43.2644 H   0  0  0  1  0  1  0  0  0  0  0  0
   88.6095   99.2654  -44.2068 H   0  0  0  1  0  1  0  0  0  0  0  0
   89.3242   99.8170  -45.7598 H   0  0  0  1  0  1  0  0  0  0  0  0
   91.1750   95.4052  -46.9464 H   0  0  0  1  0  1  0  0  0  0  0  0
   90.4413  100.4594  -42.9731 H   0  0  0  1  0  1  0  0  0  0  0  0
   89.4801  101.5838  -43.9926 H   0  0  0  1  0  1  0  0  0  0  0  0
   91.1614  101.2320  -45.8572 H   0  0  0  1  0  1  0  0  0  0  0  0
   91.5336  104.4162  -43.9460 H   0  0  0  1  0  1  0  0  0  0  0  0
   90.1605  103.2700  -43.7853 H   0  0  0  1  0  1  0  0  0  0  0  0
   90.1844  102.9095  -46.2342 H   0  0  0  1  0  1  0  0  0  0  0  0
   91.5393  104.0802  -46.3866 H   0  0  0  1  0  1  0  0  0  0  0  0
   89.9312  104.6372  -45.8107 H   0  0  0  1  0  1  0  0  0  0  0  0
   94.0860  101.9028  -44.6510 H   0  0  0  1  0  1  0  0  0  0  0  0
   93.7220  103.6529  -44.4716 H   0  0  0  1  0  1  0  0  0  0  0  0
   94.2700  103.1030  -46.8049 H   0  0  0  1  0  1  0  0  0  0  0  0
   92.5582  103.6249  -46.6607 H   0  0  0  1  0  1  0  0  0  0  0  0
   92.9537  101.8824  -46.8421 H   0  0  0  1  0  1  0  0  0  0  0  0
   92.6876   99.7454  -43.6396 H   0  0  0  1  0  1  0  0  0  0  0  0
   93.3718  100.2075  -45.2346 H   0  0  0  1  0  1  0  0  0  0  0  0
   91.6686   98.8910  -46.3961 H   0  0  0  1  0  1  0  0  0  0  0  0
   92.4999   97.8526  -45.1887 H   0  0  0  1  0  1  0  0  0  0  0  0
  1  6  1  0  0  0  0
  1  7  1  0  0  0  0
  1 18  1  0  0  0  0
  1 22  1  0  0  0  0
  2 12  1  0  0  0  0
  2 13  1  0  0  0  0
  2 15  1  0  0  0  0
  2 27  1  0  0  0  0
  3  5  2  0  0  0  0
  3  8  1  0  0  0  0
  3 20  1  0  0  0  0
  4  6  1  0  0  0  0
  4  8  2  0  0  0  0
  4 10  1  0  0  0  0
  5  9  1  0  0  0  0
  5 24  1  0  0  0  0
  6 25  1  0  0  0  0
  6 26  1  0  0  0  0
  7 11  1  0  0  0  0
  7 28  1  0  0  0  0
  7 29  1  0  0  0  0
  8 30  1  0  0  0  0
  9 10  2  0  0  0  0
  9 21  1  0  0  0  0
 10 19  1  0  0  0  0
 11 12  1  0  0  0  0
 11 31  1  0  0  0  0
 11 32  1  0  0  0  0
 12 17  1  0  0  0  0
 12 33  1  0  0  0  0
 13 14  1  0  0  0  0
 13 34  1  0  0  0  0
 13 35  1  0  0  0  0
 14 36  1  0  0  0  0
 14 37  1  0  0  0  0
 14 38  1  0  0  0  0
 15 16  1  0  0  0  0
 15 39  1  0  0  0  0
 15 40  1  0  0  0  0
 16 41  1  0  0  0  0
 16 42  1  0  0  0  0
 16 43  1  0  0  0  0
 17 18  1  0  0  0  0
 17 44  1  0  0  0  0
 17 45  1  0  0  0  0
 18 46  1  0  0  0  0
 18 47  1  0  0  0  0
 19 23  1  0  0  0  0
M  END
> <ConfScore>
-0.545775 

$$$$
4agm


 47 48  0  0  0  0  0  0  0  0999 V2000
   90.4980   98.3810  -44.6910 N   0  3  0  1  0  4  0  0  0  0  0  0
   92.0405  102.3576  -44.2461 N   0  3  0  1  0  4  0  0  0  0  0  0
   91.5929   94.7456  -42.9390 C   0  0  0  1  0  3  0  0  0  0  0  0
   90.4774   95.8983  -44.7669 C   0  0  0  1  0  3  0  0  0  0  0  0
   91.6872   93.5770  -43.7058 C   0  0  0  1  0  3  0  0  0  0  0  0
   89.9050   97.1660  -45.3350 C   0  0  0  1  0  4  0  0  0  0  0  0
   89.5430   99.5450  -44.7170 C   0  0  0  1  0  4  0  0  0  0  0  0
   90.9930   95.9002  -43.4646 C   0  0  0  1  0  3  0  0  0  0  0  0
   91.1613   93.5944  -45.0079 C   0  0  0  1  0  3  0  0  0  0  0  0
   90.5548   94.7320  -45.5729 C   0  0  0  1  0  3  0  0  0  0  0  0
   90.1750  100.7310  -44.0050 C   0  0  0  1  0  4  0  0  0  0  0  0
   91.4300  101.0810  -44.8020 C   0  0  0  1  0  4  0  0  0  0  0  0
   91.0149  103.4776  -44.2294 C   0  0  0  1  0  4  0  0  0  0  0  0
   90.5249  103.8613  -45.6151 C   0  0  0  1  0  4  0  0  0  0  0  0
   93.2913  102.7775  -44.9866 C   0  0  0  1  0  4  0  0  0  0  0  0
   93.8992  104.0685  -44.4547 C   0  0  0  1  0  4  0  0  0  0  0  0
   92.4510   99.9400  -44.6950 C   0  0  0  1  0  4  0  0  0  0  0  0
   91.8210   98.7070  -45.3220 C   0  0  0  1  0  4  0  0  0  0  0  0
   90.0598   94.7146  -46.8479 O   0  0  0  1  0  2  0  0  0  0  0  0
   92.3632   94.7700  -40.9675 I   0  0  0  1  0  1  0  0  0  0  0  0
   91.2865   91.8292  -46.1741 I   0  0  0  1  0  1  0  0  0  0  0  0
   90.6654   98.1803  -43.7171 H   0  0  0  1  0  1  0  0  0  0  0  0
   89.1314   94.5143  -46.8226 H   0  0  0  1  0  1  0  0  0  0  0  0
   92.1531   92.6841  -43.3051 H   0  0  0  1  0  1  0  0  0  0  0  0
   90.1132   97.1980  -46.4158 H   0  0  0  1  0  1  0  0  0  0  0  0
   88.8172   97.1707  -45.1702 H   0  0  0  1  0  1  0  0  0  0  0  0
   92.3060  102.1718  -43.2908 H   0  0  0  1  0  1  0  0  0  0  0  0
   88.6095   99.2654  -44.2068 H   0  0  0  1  0  1  0  0  0  0  0  0
   89.3242   99.8170  -45.7598 H   0  0  0  1  0  1  0  0  0  0  0  0
   90.9284   96.7979  -42.8598 H   0  0  0  1  0  1  0  0  0  0  0  0
   90.4413  100.4594  -42.9731 H   0  0  0  1  0  1  0  0  0  0  0  0
   89.4801  101.5838  -43.9926 H   0  0  0  1  0  1  0  0  0  0  0  0
   91.1614  101.2320  -45.8572 H   0  0  0  1  0  1  0  0  0  0  0  0
   91.4704  104.3640  -43.7621 H   0  0  0  1  0  1  0  0  0  0  0  0
   90.1513  103.1525  -43.6312 H   0  0  0  1  0  1  0  0  0  0  0  0
   91.3741  104.2155  -46.2187 H   0  0  0  1  0  1  0  0  0  0  0  0
   89.7746  104.6616  -45.5316 H   0  0  0  1  0  1  0  0  0  0  0  0
   90.0717  102.9834  -46.1001 H   0  0  0  1  0  1  0  0  0  0  0  0
   93.0374  102.9220  -46.0468 H   0  0  0  1  0  1  0  0  0  0  0  0
   94.0381  101.9750  -44.8938 H   0  0  0  1  0  1  0  0  0  0  0  0
   94.1520  103.9449  -43.3916 H   0  0  0  1  0  1  0  0  0  0  0  0
   93.1735  104.8881  -44.5649 H   0  0  0  1  0  1  0  0  0  0  0  0
   94.8103  104.3075  -45.0222 H   0  0  0  1  0  1  0  0  0  0  0  0
   92.6876   99.7454  -43.6396 H   0  0  0  1  0  1  0  0  0  0  0  0
   93.3718  100.2075  -45.2346 H   0  0  0  1  0  1  0  0  0  0  0  0
   91.6686   98.8910  -46.3961 H   0  0  0  1  0  1  0  0  0  0  0  0
   92.4999   97.8526  -45.1887 H   0  0  0  1  0  1  0  0  0  0  0  0
  1  6  1  0  0  0  0
  1  7  1  0  0  0  0
  1 18  1  0  0  0  0
  1 22  1  0  0  0  0
  2 12  1  0  0  0  0
  2 13  1  0  0  0  0
  2 15  1  0  0  0  0
  2 27  1  0  0  0  0
  3  5  2  0  0  0  0
  3  8  1  0  0  0  0
  3 20  1  0  0  0  0
  4  6  1  0  0  0  0
  4  8  2  0  0  0  0
  4 10  1  0  0  0  0
  5  9  1  0  0  0  0
  5 24  1  0  0  0  0
  6 25  1  0  0  0  0
  6 26  1  0  0  0  0
  7 11  1  0  0  0  0
  7 28  1  0  0  0  0
  7 29  1  0  0  0  0
  8 30  1  0  0  0  0
  9 10  2  0  0  0  0
  9 21  1  0  0  0  0
 10 19  1  0  0  0  0
 11 12  1  0  0  0  0
 11 31  1  0  0  0  0
 11 32  1  0  0  0  0
 12 17  1  0  0  0  0
 12 33  1  0  0  0  0
 13 14  1  0  0  0  0
 13 34  1  0  0  0  0
 13 35  1  0  0  0  0
 14 36  1  0  0  0  0
 14 37  1  0  0  0  0
 14 38  1  0  0  0  0
 15 16  1  0  0  0  0
 15 39  1  0  0  0  0
 15 40  1  0  0  0  0
 16 41  1  0  0  0  0
 16 42  1  0  0  0  0
 16 43  1  0  0  0  0
 17 18  1  0  0  0  0
 17 44  1  0  0  0  0
 17 45  1  0  0  0  0
 18 46  1  0  0  0  0
 18 47  1  0  0  0  0
 19 23  1  0  0  0  0
M  END
> <ConfScore>
-0.545442 

$$$$
4agm


 47 48  0  0  0  0  0  0  0  0999 V2000
    5.4320    2.2550   28.3390 N   0  3  0  1  0  4  0  0  0  0  0  0
    4.7958   -1.2938   27.7582 N   0  3  0  1  0  4  0  0  0  0  0  0
    7.4286    6.5606   28.0323 C   0  0  0  1  0  3  0  0  0  0  0  0
    7.0687    4.2038   28.2425 C   0  0  0  1  0  3  0  0  0  0  0  0
    8.1626    6.3374   26.8882 C   0  0  0  1  0  3  0  0  0  0  0  0
    6.4640    3.0610   28.9950 C   0  0  0  1  0  4  0  0  0  0  0  0
    6.0520    1.4770   27.2550 C   0  0  0  1  0  4  0  0  0  0  0  0
    6.8684    5.4974   28.6965 C   0  0  0  1  0  3  0  0  0  0  0  0
    8.3415    5.0452   26.4097 C   0  0  0  1  0  3  0  0  0  0  0  0
    7.7916    3.9756   27.0837 C   0  0  0  1  0  3  0  0  0  0  0  0
    4.9600    0.8100   26.4490 C   0  0  0  1  0  4  0  0  0  0  0  0
    4.0370   -0.0500   27.3240 C   0  0  0  1  0  4  0  0  0  0  0  0
    5.6556   -0.9980   28.9748 C   0  0  0  1  0  4  0  0  0  0  0  0
    6.3844   -2.2210   29.5044 C   0  0  0  1  0  4  0  0  0  0  0  0
    5.6224   -1.8933   26.6418 C   0  0  0  1  0  4  0  0  0  0  0  0
    6.7540   -0.9857   26.1783 C   0  0  0  1  0  4  0  0  0  0  0  0
    3.5580    0.6920   28.5700 C   0  0  0  1  0  4  0  0  0  0  0  0
    4.7240    1.3610   29.2750 C   0  0  0  1  0  4  0  0  0  0  0  0
    7.9585    2.7023   26.6128 O   0  0  0  1  0  2  0  0  0  0  0  0
    7.1659    8.5303   28.7620 I   0  0  0  1  0  1  0  0  0  0  0  0
    9.4616    4.7180   24.6406 I   0  0  0  1  0  1  0  0  0  0  0  0
    4.7368    2.8838   27.9672 H   0  0  0  1  0  1  0  0  0  0  0  0
    8.8305    2.3965   26.8334 H   0  0  0  1  0  1  0  0  0  0  0  0
    8.6029    7.1743   26.3584 H   0  0  0  1  0  1  0  0  0  0  0  0
    7.2856    2.3790   29.2638 H   0  0  0  1  0  1  0  0  0  0  0  0
    6.0171    3.4764   29.9106 H   0  0  0  1  0  1  0  0  0  0  0  0
    4.1113   -1.9839   28.0280 H   0  0  0  1  0  1  0  0  0  0  0  0
    6.7161    0.7114   27.6825 H   0  0  0  1  0  1  0  0  0  0  0  0
    6.6342    2.1468   26.6055 H   0  0  0  1  0  1  0  0  0  0  0  0
    6.2660    5.6711   29.5811 H   0  0  0  1  0  1  0  0  0  0  0  0
    5.4246    0.1679   25.6865 H   0  0  0  1  0  1  0  0  0  0  0  0
    4.3577    1.5879   25.9566 H   0  0  0  1  0  1  0  0  0  0  0  0
    3.1603   -0.3439   26.7295 H   0  0  0  1  0  1  0  0  0  0  0  0
    5.0096   -0.6031   29.7737 H   0  0  0  1  0  1  0  0  0  0  0  0
    6.4019   -0.2386   28.6997 H   0  0  0  1  0  1  0  0  0  0  0  0
    7.0316   -2.6321   28.7151 H   0  0  0  1  0  1  0  0  0  0  0  0
    5.6514   -2.9818   29.8116 H   0  0  0  1  0  1  0  0  0  0  0  0
    7.0001   -1.9347   30.3706 H   0  0  0  1  0  1  0  0  0  0  0  0
    4.9611   -2.0919   25.7858 H   0  0  0  1  0  1  0  0  0  0  0  0
    6.0564   -2.8395   26.9979 H   0  0  0  1  0  1  0  0  0  0  0  0
    7.4212   -0.7686   27.0251 H   0  0  0  1  0  1  0  0  0  0  0  0
    6.3345   -0.0444   25.7929 H   0  0  0  1  0  1  0  0  0  0  0  0
    7.3241   -1.4856   25.3818 H   0  0  0  1  0  1  0  0  0  0  0  0
    3.0837   -0.0234   29.2562 H   0  0  0  1  0  1  0  0  0  0  0  0
    2.8260    1.4586   28.2751 H   0  0  0  1  0  1  0  0  0  0  0  0
    4.3471    1.9485   30.1257 H   0  0  0  1  0  1  0  0  0  0  0  0
    5.4192    0.5914   29.6398 H   0  0  0  1  0  1  0  0  0  0  0  0
  1  6  1  0  0  0  0
  1  7  1  0  0  0  0
  1 18  1  0  0  0  0
  1 22  1  0  0  0  0
  2 12  1  0  0  0  0
  2 13  1  0  0  0  0
  2 15  1  0  0  0  0
  2 27  1  0  0  0  0
  3  5  2  0  0  0  0
  3  8  1  0  0  0  0
  3 20  1  0  0  0  0
  4  6  1  0  0  0  0
  4  8  2  0  0  0  0
  4 10  1  0  0  0  0
  5  9  1  0  0  0  0
  5 24  1  0  0  0  0
  6 25  1  0  0  0  0
  6 26  1  0  0  0  0
  7 11  1  0  0  0  0
  7 28  1  0  0  0  0
  7 29  1  0  0  0  0
  8 30  1  0  0  0  0
  9 10  2  0  0  0  0
  9 21  1  0  0  0  0
 10 19  1  0  0  0  0
 11 12  1  0  0  0  0
 11 31  1  0  0  0  0
 11 32  1  0  0  0  0
 12 17  1  0  0  0  0
 12 33  1  0  0  0  0
 13 14  1  0  0  0  0
 13 34  1  0  0  0  0
 13 35  1  0  0  0  0
 14 36  1  0  0  0  0
 14 37  1  0  0  0  0
 14 38  1  0  0  0  0
 15 16  1  0  0  0  0
 15 39  1  0  0  0  0
 15 40  1  0  0  0  0
 16 41  1  0  0  0  0
 16 42  1  0  0  0  0
 16 43  1  0  0  0  0
 17 18  1  0  0  0  0
 17 44  1  0  0  0  0
 17 45  1  0  0  0  0
 18 46  1  0  0  0  0
 18 47  1  0  0  0  0
 19 23  1  0  0  0  0
M  END
> <ConfScore>
-0.542725 

$$$$
4agm


 47 48  0  0  0  0  0  0  0  0999 V2000
   90.4980   98.3810  -44.6910 N   0  3  0  1  0  4  0  0  0  0  0  0
   92.0405  102.3576  -44.2461 N   0  3  0  1  0  4  0  0  0  0  0  0
   87.6645   95.7275  -42.6223 C   0  0  0  1  0  3  0  0  0  0  0  0
   88.6755   96.6953  -44.6111 C   0  0  0  1  0  3  0  0  0  0  0  0
   86.4171   95.6728  -43.2574 C   0  0  0  1  0  3  0  0  0  0  0  0
   89.9050   97.1660  -45.3350 C   0  0  0  1  0  4  0  0  0  0  0  0
   89.5430   99.5450  -44.7170 C   0  0  0  1  0  4  0  0  0  0  0  0
   88.7879   96.2342  -43.2933 C   0  0  0  1  0  3  0  0  0  0  0  0
   86.3243   96.1428  -44.5776 C   0  0  0  1  0  3  0  0  0  0  0  0
   87.4270   96.6556  -45.2863 C   0  0  0  1  0  3  0  0  0  0  0  0
   90.1750  100.7310  -44.0050 C   0  0  0  1  0  4  0  0  0  0  0  0
   91.4300  101.0810  -44.8020 C   0  0  0  1  0  4  0  0  0  0  0  0
   93.0655  102.0365  -43.1723 C   0  0  0  1  0  4  0  0  0  0  0  0
   94.1748  101.1197  -43.6586 C   0  0  0  1  0  4  0  0  0  0  0  0
   90.9993  103.3267  -43.7306 C   0  0  0  1  0  4  0  0  0  0  0  0
   89.9813  103.7329  -44.7878 C   0  0  0  1  0  4  0  0  0  0  0  0
   92.4510   99.9400  -44.6950 C   0  0  0  1  0  4  0  0  0  0  0  0
   91.8210   98.7070  -45.3220 C   0  0  0  1  0  4  0  0  0  0  0  0
   87.3009   97.0981  -46.5744 O   0  0  0  1  0  2  0  0  0  0  0  0
   87.8567   95.0386  -40.6299 I   0  0  0  1  0  1  0  0  0  0  0  0
   84.4402   96.0771  -45.5457 I   0  0  0  1  0  1  0  0  0  0  0  0
   90.6654   98.1803  -43.7171 H   0  0  0  1  0  1  0  0  0  0  0  0
   87.8594   96.5796  -47.1417 H   0  0  0  1  0  1  0  0  0  0  0  0
   85.5476   95.2787  -42.7441 H   0  0  0  1  0  1  0  0  0  0  0  0
   90.6533   96.3583  -45.3289 H   0  0  0  1  0  1  0  0  0  0  0  0
   89.6355   97.4091  -46.3736 H   0  0  0  1  0  1  0  0  0  0  0  0
   92.5248  102.8135  -45.0045 H   0  0  0  1  0  1  0  0  0  0  0  0
   88.6095   99.2654  -44.2068 H   0  0  0  1  0  1  0  0  0  0  0  0
   89.3242   99.8170  -45.7598 H   0  0  0  1  0  1  0  0  0  0  0  0
   89.7474   96.2691  -42.7893 H   0  0  0  1  0  1  0  0  0  0  0  0
   90.4413  100.4594  -42.9731 H   0  0  0  1  0  1  0  0  0  0  0  0
   89.4801  101.5838  -43.9926 H   0  0  0  1  0  1  0  0  0  0  0  0
   91.1614  101.2320  -45.8572 H   0  0  0  1  0  1  0  0  0  0  0  0
   92.5513  101.5470  -42.3312 H   0  0  0  1  0  1  0  0  0  0  0  0
   93.5168  102.9778  -42.8265 H   0  0  0  1  0  1  0  0  0  0  0  0
   94.8884  100.9421  -42.8400 H   0  0  0  1  0  1  0  0  0  0  0  0
   94.6966  101.5904  -44.5051 H   0  0  0  1  0  1  0  0  0  0  0  0
   93.7426  100.1606  -43.9822 H   0  0  0  1  0  1  0  0  0  0  0  0
   91.5115  104.2318  -43.3730 H   0  0  0  1  0  1  0  0  0  0  0  0
   90.4647  102.8526  -42.8941 H   0  0  0  1  0  1  0  0  0  0  0  0
   89.2457  104.4199  -44.3448 H   0  0  0  1  0  1  0  0  0  0  0  0
   89.4648  102.8367  -45.1628 H   0  0  0  1  0  1  0  0  0  0  0  0
   90.4955  104.2344  -45.6205 H   0  0  0  1  0  1  0  0  0  0  0  0
   92.6876   99.7454  -43.6396 H   0  0  0  1  0  1  0  0  0  0  0  0
   93.3718  100.2075  -45.2346 H   0  0  0  1  0  1  0  0  0  0  0  0
   91.6686   98.8910  -46.3961 H   0  0  0  1  0  1  0  0  0  0  0  0
   92.4999   97.8526  -45.1887 H   0  0  0  1  0  1  0  0  0  0  0  0
  1  6  1  0  0  0  0
  1  7  1  0  0  0  0
  1 18  1  0  0  0  0
  1 22  1  0  0  0  0
  2 12  1  0  0  0  0
  2 13  1  0  0  0  0
  2 15  1  0  0  0  0
  2 27  1  0  0  0  0
  3  5  2  0  0  0  0
  3  8  1  0  0  0  0
  3 20  1  0  0  0  0
  4  6  1  0  0  0  0
  4  8  2  0  0  0  0
  4 10  1  0  0  0  0
  5  9  1  0  0  0  0
  5 24  1  0  0  0  0
  6 25  1  0  0  0  0
  6 26  1  0  0  0  0
  7 11  1  0  0  0  0
  7 28  1  0  0  0  0
  7 29  1  0  0  0  0
  8 30  1  0  0  0  0
  9 10  2  0  0  0  0
  9 21  1  0  0  0  0
 10 19  1  0  0  0  0
 11 12  1  0  0  0  0
 11 31  1  0  0  0  0
 11 32  1  0  0  0  0
 12 17  1  0  0  0  0
 12 33  1  0  0  0  0
 13 14  1  0  0  0  0
 13 34  1  0  0  0  0
 13 35  1  0  0  0  0
 14 36  1  0  0  0  0
 14 37  1  0  0  0  0
 14 38  1  0  0  0  0
 15 16  1  0  0  0  0
 15 39  1  0  0  0  0
 15 40  1  0  0  0  0
 16 41  1  0  0  0  0
 16 42  1  0  0  0  0
 16 43  1  0  0  0  0
 17 18  1  0  0  0  0
 17 44  1  0  0  0  0
 17 45  1  0  0  0  0
 18 46  1  0  0  0  0
 18 47  1  0  0  0  0
 19 23  1  0  0  0  0
M  END
> <ConfScore>
-0.538099 

$$$$
4agm


 47 48  0  0  0  0  0  0  0  0999 V2000
   90.4980   98.3810  -44.6910 N   0  3  0  1  0  4  0  0  0  0  0  0
   92.0405  102.3576  -44.2461 N   0  3  0  1  0  4  0  0  0  0  0  0
   92.4187   94.4366  -44.5105 C   0  0  0  1  0  3  0  0  0  0  0  0
   90.4948   95.8988  -44.7838 C   0  0  0  1  0  3  0  0  0  0  0  0
   91.6210   93.4690  -43.8862 C   0  0  0  1  0  3  0  0  0  0  0  0
   89.9050   97.1660  -45.3350 C   0  0  0  1  0  4  0  0  0  0  0  0
   89.5430   99.5450  -44.7170 C   0  0  0  1  0  4  0  0  0  0  0  0
   91.8611   95.6441  -44.9579 C   0  0  0  1  0  3  0  0  0  0  0  0
   90.2542   93.7447  -43.7181 C   0  0  0  1  0  3  0  0  0  0  0  0
   89.6557   94.9414  -44.1550 C   0  0  0  1  0  3  0  0  0  0  0  0
   90.1750  100.7310  -44.0050 C   0  0  0  1  0  4  0  0  0  0  0  0
   91.4300  101.0810  -44.8020 C   0  0  0  1  0  4  0  0  0  0  0  0
   91.0627  103.5137  -44.3648 C   0  0  0  1  0  4  0  0  0  0  0  0
   89.7362  103.2491  -43.6737 C   0  0  0  1  0  4  0  0  0  0  0  0
   93.3664  102.6994  -44.8897 C   0  0  0  1  0  4  0  0  0  0  0  0
   94.4437  101.6528  -44.6381 C   0  0  0  1  0  4  0  0  0  0  0  0
   92.4510   99.9400  -44.6950 C   0  0  0  1  0  4  0  0  0  0  0  0
   91.8210   98.7070  -45.3220 C   0  0  0  1  0  4  0  0  0  0  0  0
   88.3190   95.1729  -43.9808 O   0  0  0  1  0  2  0  0  0  0  0  0
   94.4865   94.0737  -44.7815 I   0  0  0  1  0  1  0  0  0  0  0  0
   89.0386   92.2943  -42.7641 I   0  0  0  1  0  1  0  0  0  0  0  0
   90.6654   98.1803  -43.7171 H   0  0  0  1  0  1  0  0  0  0  0  0
   88.1866   95.6670  -43.1803 H   0  0  0  1  0  1  0  0  0  0  0  0
   92.0468   92.5334  -43.5425 H   0  0  0  1  0  1  0  0  0  0  0  0
   90.0976   97.2070  -46.4183 H   0  0  0  1  0  1  0  0  0  0  0  0
   88.8196   97.1614  -45.1549 H   0  0  0  1  0  1  0  0  0  0  0  0
   92.2147  102.2040  -43.2644 H   0  0  0  1  0  1  0  0  0  0  0  0
   88.6095   99.2654  -44.2068 H   0  0  0  1  0  1  0  0  0  0  0  0
   89.3242   99.8170  -45.7598 H   0  0  0  1  0  1  0  0  0  0  0  0
   92.4907   96.3832  -45.4407 H   0  0  0  1  0  1  0  0  0  0  0  0
   90.4413  100.4594  -42.9731 H   0  0  0  1  0  1  0  0  0  0  0  0
   89.4801  101.5838  -43.9926 H   0  0  0  1  0  1  0  0  0  0  0  0
   91.1614  101.2320  -45.8572 H   0  0  0  1  0  1  0  0  0  0  0  0
   90.8693  103.7017  -45.4320 H   0  0  0  1  0  1  0  0  0  0  0  0
   91.5197  104.4064  -43.9136 H   0  0  0  1  0  1  0  0  0  0  0  0
   89.0776  104.1217  -43.7987 H   0  0  0  1  0  1  0  0  0  0  0  0
   89.9089  103.0698  -42.6020 H   0  0  0  1  0  1  0  0  0  0  0  0
   89.2597  102.3636  -44.1211 H   0  0  0  1  0  1  0  0  0  0  0  0
   93.7131  103.6615  -44.4853 H   0  0  0  1  0  1  0  0  0  0  0  0
   93.2143  102.7908  -45.9754 H   0  0  0  1  0  1  0  0  0  0  0  0
   95.3719  101.9514  -45.1465 H   0  0  0  1  0  1  0  0  0  0  0  0
   94.1089  100.6807  -45.0298 H   0  0  0  1  0  1  0  0  0  0  0  0
   94.6292  101.5679  -43.5575 H   0  0  0  1  0  1  0  0  0  0  0  0
   92.6876   99.7454  -43.6396 H   0  0  0  1  0  1  0  0  0  0  0  0
   93.3718  100.2075  -45.2346 H   0  0  0  1  0  1  0  0  0  0  0  0
   91.6686   98.8910  -46.3961 H   0  0  0  1  0  1  0  0  0  0  0  0
   92.4999   97.8526  -45.1887 H   0  0  0  1  0  1  0  0  0  0  0  0
  1  6  1  0  0  0  0
  1  7  1  0  0  0  0
  1 18  1  0  0  0  0
  1 22  1  0  0  0  0
  2 12  1  0  0  0  0
  2 13  1  0  0  0  0
  2 15  1  0  0  0  0
  2 27  1  0  0  0  0
  3  5  2  0  0  0  0
  3  8  1  0  0  0  0
  3 20  1  0  0  0  0
  4  6  1  0  0  0  0
  4  8  2  0  0  0  0
  4 10  1  0  0  0  0
  5  9  1  0  0  0  0
  5 24  1  0  0  0  0
  6 25  1  0  0  0  0
  6 26  1  0  0  0  0
  7 11  1  0  0  0  0
  7 28  1  0  0  0  0
  7 29  1  0  0  0  0
  8 30  1  0  0  0  0
  9 10  2  0  0  0  0
  9 21  1  0  0  0  0
 10 19  1  0  0  0  0
 11 12  1  0  0  0  0
 11 31  1  0  0  0  0
 11 32  1  0  0  0  0
 12 17  1  0  0  0  0
 12 33  1  0  0  0  0
 13 14  1  0  0  0  0
 13 34  1  0  0  0  0
 13 35  1  0  0  0  0
 14 36  1  0  0  0  0
 14 37  1  0  0  0  0
 14 38  1  0  0  0  0
 15 16  1  0  0  0  0
 15 39  1  0  0  0  0
 15 40  1  0  0  0  0
 16 41  1  0  0  0  0
 16 42  1  0  0  0  0
 16 43  1  0  0  0  0
 17 18  1  0  0  0  0
 17 44  1  0  0  0  0
 17 45  1  0  0  0  0
 18 46  1  0  0  0  0
 18 47  1  0  0  0  0
 19 23  1  0  0  0  0
M  END
> <ConfScore>
-0.537816 

$$$$
4agm


 47 48  0  0  0  0  0  0  0  0999 V2000
   90.4980   98.3810  -44.6910 N   0  3  0  1  0  4  0  0  0  0  0  0
   92.0405  102.3576  -44.2461 N   0  3  0  1  0  4  0  0  0  0  0  0
   92.1284   94.1060  -44.9600 C   0  0  0  1  0  3  0  0  0  0  0  0
   90.4948   95.8988  -44.7838 C   0  0  0  1  0  3  0  0  0  0  0  0
   91.5529   93.4458  -43.8667 C   0  0  0  1  0  3  0  0  0  0  0  0
   89.9050   97.1660  -45.3350 C   0  0  0  1  0  4  0  0  0  0  0  0
   89.5430   99.5450  -44.7170 C   0  0  0  1  0  4  0  0  0  0  0  0
   91.6038   95.3243  -45.4178 C   0  0  0  1  0  3  0  0  0  0  0  0
   90.4437   94.0397  -43.2427 C   0  0  0  1  0  3  0  0  0  0  0  0
   89.8858   95.2583  -43.6726 C   0  0  0  1  0  3  0  0  0  0  0  0
   90.1750  100.7310  -44.0050 C   0  0  0  1  0  4  0  0  0  0  0  0
   91.4300  101.0810  -44.8020 C   0  0  0  1  0  4  0  0  0  0  0  0
   92.4671  102.1613  -42.8017 C   0  0  0  1  0  4  0  0  0  0  0  0
   93.1536  103.3800  -42.2094 C   0  0  0  1  0  4  0  0  0  0  0  0
   91.1224  103.5522  -44.3836 C   0  0  0  1  0  4  0  0  0  0  0  0
   90.8135  103.9087  -45.8316 C   0  0  0  1  0  4  0  0  0  0  0  0
   92.4510   99.9400  -44.6950 C   0  0  0  1  0  4  0  0  0  0  0  0
   91.8210   98.7070  -45.3220 C   0  0  0  1  0  4  0  0  0  0  0  0
   88.7999   95.8039  -43.0447 O   0  0  0  1  0  2  0  0  0  0  0  0
   93.8067   93.2571  -45.9315 I   0  0  0  1  0  1  0  0  0  0  0  0
   89.5712   93.0573  -41.5799 I   0  0  0  1  0  1  0  0  0  0  0  0
   90.6654   98.1803  -43.7171 H   0  0  0  1  0  1  0  0  0  0  0  0
   89.0942   96.4312  -42.3947 H   0  0  0  1  0  1  0  0  0  0  0  0
   91.9526   92.5027  -43.5122 H   0  0  0  1  0  1  0  0  0  0  0  0
   90.0976   97.2070  -46.4183 H   0  0  0  1  0  1  0  0  0  0  0  0
   88.8196   97.1614  -45.1549 H   0  0  0  1  0  1  0  0  0  0  0  0
   92.8698  102.5533  -44.7860 H   0  0  0  1  0  1  0  0  0  0  0  0
   88.6095   99.2654  -44.2068 H   0  0  0  1  0  1  0  0  0  0  0  0
   89.3242   99.8170  -45.7598 H   0  0  0  1  0  1  0  0  0  0  0  0
   92.0589   95.8232  -46.2662 H   0  0  0  1  0  1  0  0  0  0  0  0
   90.4413  100.4594  -42.9731 H   0  0  0  1  0  1  0  0  0  0  0  0
   89.4801  101.5838  -43.9926 H   0  0  0  1  0  1  0  0  0  0  0  0
   91.1614  101.2320  -45.8572 H   0  0  0  1  0  1  0  0  0  0  0  0
   93.1637  101.3103  -42.7539 H   0  0  0  1  0  1  0  0  0  0  0  0
   91.5743  101.9366  -42.2004 H   0  0  0  1  0  1  0  0  0  0  0  0
   94.0654  103.6021  -42.7838 H   0  0  0  1  0  1  0  0  0  0  0  0
   93.4198  103.1791  -41.1609 H   0  0  0  1  0  1  0  0  0  0  0  0
   92.4724  104.2433  -42.2554 H   0  0  0  1  0  1  0  0  0  0  0  0
   91.6026  104.4184  -43.9056 H   0  0  0  1  0  1  0  0  0  0  0  0
   90.1763  103.3266  -43.8694 H   0  0  0  1  0  1  0  0  0  0  0  0
   90.1296  104.7694  -45.8603 H   0  0  0  1  0  1  0  0  0  0  0  0
   90.3396  103.0486  -46.3278 H   0  0  0  1  0  1  0  0  0  0  0  0
   91.7463  104.1648  -46.3547 H   0  0  0  1  0  1  0  0  0  0  0  0
   92.6876   99.7454  -43.6396 H   0  0  0  1  0  1  0  0  0  0  0  0
   93.3718  100.2075  -45.2346 H   0  0  0  1  0  1  0  0  0  0  0  0
   91.6686   98.8910  -46.3961 H   0  0  0  1  0  1  0  0  0  0  0  0
   92.4999   97.8526  -45.1887 H   0  0  0  1  0  1  0  0  0  0  0  0
  1  6  1  0  0  0  0
  1  7  1  0  0  0  0
  1 18  1  0  0  0  0
  1 22  1  0  0  0  0
  2 12  1  0  0  0  0
  2 13  1  0  0  0  0
  2 15  1  0  0  0  0
  2 27  1  0  0  0  0
  3  5  2  0  0  0  0
  3  8  1  0  0  0  0
  3 20  1  0  0  0  0
  4  6  1  0  0  0  0
  4  8  2  0  0  0  0
  4 10  1  0  0  0  0
  5  9  1  0  0  0  0
  5 24  1  0  0  0  0
  6 25  1  0  0  0  0
  6 26  1  0  0  0  0
  7 11  1  0  0  0  0
  7 28  1  0  0  0  0
  7 29  1  0  0  0  0
  8 30  1  0  0  0  0
  9 10  2  0  0  0  0
  9 21  1  0  0  0  0
 10 19  1  0  0  0  0
 11 12  1  0  0  0  0
 11 31  1  0  0  0  0
 11 32  1  0  0  0  0
 12 17  1  0  0  0  0
 12 33  1  0  0  0  0
 13 14  1  0  0  0  0
 13 34  1  0  0  0  0
 13 35  1  0  0  0  0
 14 36  1  0  0  0  0
 14 37  1  0  0  0  0
 14 38  1  0  0  0  0
 15 16  1  0  0  0  0
 15 39  1  0  0  0  0
 15 40  1  0  0  0  0
 16 41  1  0  0  0  0
 16 42  1  0  0  0  0
 16 43  1  0  0  0  0
 17 18  1  0  0  0  0
 17 44  1  0  0  0  0
 17 45  1  0  0  0  0
 18 46  1  0  0  0  0
 18 47  1  0  0  0  0
 19 23  1  0  0  0  0
M  END
> <ConfScore>
-0.530573 

$$$$
4agm


 47 48  0  0  0  0  0  0  0  0999 V2000
   90.4980   98.3810  -44.6910 N   0  3  0  1  0  4  0  0  0  0  0  0
   92.0405  102.3576  -44.2461 N   0  3  0  1  0  4  0  0  0  0  0  0
   90.5061   93.6169  -44.1141 C   0  0  0  1  0  3  0  0  0  0  0  0
   89.9703   95.9678  -44.4309 C   0  0  0  1  0  3  0  0  0  0  0  0
   89.9876   93.6524  -42.8132 C   0  0  0  1  0  3  0  0  0  0  0  0
   89.9050   97.1660  -45.3350 C   0  0  0  1  0  4  0  0  0  0  0  0
   89.5430   99.5450  -44.7170 C   0  0  0  1  0  4  0  0  0  0  0  0
   90.4976   94.7658  -44.9198 C   0  0  0  1  0  3  0  0  0  0  0  0
   89.4664   94.8678  -42.3404 C   0  0  0  1  0  3  0  0  0  0  0  0
   89.4366   96.0412  -43.1172 C   0  0  0  1  0  3  0  0  0  0  0  0
   90.1750  100.7310  -44.0050 C   0  0  0  1  0  4  0  0  0  0  0  0
   91.4300  101.0810  -44.8020 C   0  0  0  1  0  4  0  0  0  0  0  0
   91.0627  103.5137  -44.3648 C   0  0  0  1  0  4  0  0  0  0  0  0
   89.7043  103.2138  -43.7547 C   0  0  0  1  0  4  0  0  0  0  0  0
   93.3664  102.6994  -44.8897 C   0  0  0  1  0  4  0  0  0  0  0  0
   94.3909  101.5773  -44.7870 C   0  0  0  1  0  4  0  0  0  0  0  0
   92.4510   99.9400  -44.6950 C   0  0  0  1  0  4  0  0  0  0  0  0
   91.8210   98.7070  -45.3220 C   0  0  0  1  0  4  0  0  0  0  0  0
   88.9143   97.2060  -42.6259 O   0  0  0  1  0  2  0  0  0  0  0  0
   91.3105   91.8116  -44.8724 I   0  0  0  1  0  1  0  0  0  0  0  0
   88.6902   94.9382  -40.3697 I   0  0  0  1  0  1  0  0  0  0  0  0
   90.6654   98.1803  -43.7171 H   0  0  0  1  0  1  0  0  0  0  0  0
   89.6141   97.7369  -42.2638 H   0  0  0  1  0  1  0  0  0  0  0  0
   89.9887   92.7664  -42.1889 H   0  0  0  1  0  1  0  0  0  0  0  0
   90.4609   96.9455  -46.2596 H   0  0  0  1  0  1  0  0  0  0  0  0
   88.8520   97.3706  -45.5795 H   0  0  0  1  0  1  0  0  0  0  0  0
   92.2147  102.2040  -43.2644 H   0  0  0  1  0  1  0  0  0  0  0  0
   88.6095   99.2654  -44.2068 H   0  0  0  1  0  1  0  0  0  0  0  0
   89.3242   99.8170  -45.7598 H   0  0  0  1  0  1  0  0  0  0  0  0
   90.9012   94.7229  -45.9253 H   0  0  0  1  0  1  0  0  0  0  0  0
   90.4413  100.4594  -42.9731 H   0  0  0  1  0  1  0  0  0  0  0  0
   89.4801  101.5838  -43.9926 H   0  0  0  1  0  1  0  0  0  0  0  0
   91.1614  101.2320  -45.8572 H   0  0  0  1  0  1  0  0  0  0  0  0
   90.9228  103.7470  -45.4314 H   0  0  0  1  0  1  0  0  0  0  0  0
   91.4904  104.3878  -43.8527 H   0  0  0  1  0  1  0  0  0  0  0  0
   89.8250  102.9902  -42.6840 H   0  0  0  1  0  1  0  0  0  0  0  0
   89.2560  102.3470  -44.2626 H   0  0  0  1  0  1  0  0  0  0  0  0
   89.0473  104.0886  -43.8742 H   0  0  0  1  0  1  0  0  0  0  0  0
   93.7753  103.5919  -44.3941 H   0  0  0  1  0  1  0  0  0  0  0  0
   93.1921  102.9176  -45.9538 H   0  0  0  1  0  1  0  0  0  0  0  0
   95.3209  101.8818  -45.2886 H   0  0  0  1  0  1  0  0  0  0  0  0
   93.9936  100.6728  -45.2714 H   0  0  0  1  0  1  0  0  0  0  0  0
   94.5987  101.3644  -43.7283 H   0  0  0  1  0  1  0  0  0  0  0  0
   92.6876   99.7454  -43.6396 H   0  0  0  1  0  1  0  0  0  0  0  0
   93.3718  100.2075  -45.2346 H   0  0  0  1  0  1  0  0  0  0  0  0
   91.6686   98.8910  -46.3961 H   0  0  0  1  0  1  0  0  0  0  0  0
   92.4999   97.8526  -45.1887 H   0  0  0  1  0  1  0  0  0  0  0  0
  1  6  1  0  0  0  0
  1  7  1  0  0  0  0
  1 18  1  0  0  0  0
  1 22  1  0  0  0  0
  2 12  1  0  0  0  0
  2 13  1  0  0  0  0
  2 15  1  0  0  0  0
  2 27  1  0  0  0  0
  3  5  2  0  0  0  0
  3  8  1  0  0  0  0
  3 20  1  0  0  0  0
  4  6  1  0  0  0  0
  4  8  2  0  0  0  0
  4 10  1  0  0  0  0
  5  9  1  0  0  0  0
  5 24  1  0  0  0  0
  6 25  1  0  0  0  0
  6 26  1  0  0  0  0
  7 11  1  0  0  0  0
  7 28  1  0  0  0  0
  7 29  1  0  0  0  0
  8 30  1  0  0  0  0
  9 10  2  0  0  0  0
  9 21  1  0  0  0  0
 10 19  1  0  0  0  0
 11 12  1  0  0  0  0
 11 31  1  0  0  0  0
 11 32  1  0  0  0  0
 12 17  1  0  0  0  0
 12 33  1  0  0  0  0
 13 14  1  0  0  0  0
 13 34  1  0  0  0  0
 13 35  1  0  0  0  0
 14 36  1  0  0  0  0
 14 37  1  0  0  0  0
 14 38  1  0  0  0  0
 15 16  1  0  0  0  0
 15 39  1  0  0  0  0
 15 40  1  0  0  0  0
 16 41  1  0  0  0  0
 16 42  1  0  0  0  0
 16 43  1  0  0  0  0
 17 18  1  0  0  0  0
 17 44  1  0  0  0  0
 17 45  1  0  0  0  0
 18 46  1  0  0  0  0
 18 47  1  0  0  0  0
 19 23  1  0  0  0  0
M  END
> <ConfScore>
-0.529428 

$$$$
4agm


 47 48  0  0  0  0  0  0  0  0999 V2000
   90.4980   98.3810  -44.6910 N   0  3  0  1  0  4  0  0  0  0  0  0
   92.0405  102.3576  -44.2461 N   0  3  0  1  0  4  0  0  0  0  0  0
   88.7206   94.1471  -43.3412 C   0  0  0  1  0  3  0  0  0  0  0  0
   89.9163   95.9779  -44.4055 C   0  0  0  1  0  3  0  0  0  0  0  0
   89.8487   93.8284  -42.5743 C   0  0  0  1  0  3  0  0  0  0  0  0
   89.9050   97.1660  -45.3350 C   0  0  0  1  0  4  0  0  0  0  0  0
   89.5430   99.5450  -44.7170 C   0  0  0  1  0  4  0  0  0  0  0  0
   88.7517   95.2151  -44.2509 C   0  0  0  1  0  3  0  0  0  0  0  0
   91.0075   94.6031  -42.7462 C   0  0  0  1  0  3  0  0  0  0  0  0
   91.0789   95.6837  -43.6453 C   0  0  0  1  0  3  0  0  0  0  0  0
   90.1750  100.7310  -44.0050 C   0  0  0  1  0  4  0  0  0  0  0  0
   91.4300  101.0810  -44.8020 C   0  0  0  1  0  4  0  0  0  0  0  0
   91.0627  103.5137  -44.3648 C   0  0  0  1  0  4  0  0  0  0  0  0
   89.7043  103.2138  -43.7547 C   0  0  0  1  0  4  0  0  0  0  0  0
   93.3664  102.6994  -44.8897 C   0  0  0  1  0  4  0  0  0  0  0  0
   94.4437  101.6528  -44.6381 C   0  0  0  1  0  4  0  0  0  0  0  0
   92.4510   99.9400  -44.6950 C   0  0  0  1  0  4  0  0  0  0  0  0
   91.8210   98.7070  -45.3220 C   0  0  0  1  0  4  0  0  0  0  0  0
   92.2228   96.4211  -43.7814 O   0  0  0  1  0  2  0  0  0  0  0  0
   86.9508   93.0059  -43.1256 I   0  0  0  1  0  1  0  0  0  0  0  0
   92.7251   94.1237  -41.6010 I   0  0  0  1  0  1  0  0  0  0  0  0
   90.6654   98.1803  -43.7171 H   0  0  0  1  0  1  0  0  0  0  0  0
   92.7327   96.0805  -44.5071 H   0  0  0  1  0  1  0  0  0  0  0  0
   89.8279   93.0067  -41.8677 H   0  0  0  1  0  1  0  0  0  0  0  0
   90.4884   96.9194  -46.2357 H   0  0  0  1  0  1  0  0  0  0  0  0
   88.8652   97.3855  -45.6197 H   0  0  0  1  0  1  0  0  0  0  0  0
   92.2147  102.2040  -43.2644 H   0  0  0  1  0  1  0  0  0  0  0  0
   88.6095   99.2654  -44.2068 H   0  0  0  1  0  1  0  0  0  0  0  0
   89.3242   99.8170  -45.7598 H   0  0  0  1  0  1  0  0  0  0  0  0
   87.8703   95.4509  -44.8368 H   0  0  0  1  0  1  0  0  0  0  0  0
   90.4413  100.4594  -42.9731 H   0  0  0  1  0  1  0  0  0  0  0  0
   89.4801  101.5838  -43.9926 H   0  0  0  1  0  1  0  0  0  0  0  0
   91.1614  101.2320  -45.8572 H   0  0  0  1  0  1  0  0  0  0  0  0
   90.9228  103.7470  -45.4314 H   0  0  0  1  0  1  0  0  0  0  0  0
   91.4904  104.3878  -43.8527 H   0  0  0  1  0  1  0  0  0  0  0  0
   89.0475  104.0883  -43.8755 H   0  0  0  1  0  1  0  0  0  0  0  0
   89.8233  102.9890  -42.6843 H   0  0  0  1  0  1  0  0  0  0  0  0
   89.2569  102.3466  -44.2636 H   0  0  0  1  0  1  0  0  0  0  0  0
   93.7131  103.6615  -44.4853 H   0  0  0  1  0  1  0  0  0  0  0  0
   93.2143  102.7908  -45.9754 H   0  0  0  1  0  1  0  0  0  0  0  0
   95.3719  101.9514  -45.1465 H   0  0  0  1  0  1  0  0  0  0  0  0
   94.1089  100.6807  -45.0298 H   0  0  0  1  0  1  0  0  0  0  0  0
   94.6292  101.5679  -43.5575 H   0  0  0  1  0  1  0  0  0  0  0  0
   92.6876   99.7454  -43.6396 H   0  0  0  1  0  1  0  0  0  0  0  0
   93.3718  100.2075  -45.2346 H   0  0  0  1  0  1  0  0  0  0  0  0
   91.6686   98.8910  -46.3961 H   0  0  0  1  0  1  0  0  0  0  0  0
   92.4999   97.8526  -45.1887 H   0  0  0  1  0  1  0  0  0  0  0  0
  1  6  1  0  0  0  0
  1  7  1  0  0  0  0
  1 18  1  0  0  0  0
  1 22  1  0  0  0  0
  2 12  1  0  0  0  0
  2 13  1  0  0  0  0
  2 15  1  0  0  0  0
  2 27  1  0  0  0  0
  3  5  2  0  0  0  0
  3  8  1  0  0  0  0
  3 20  1  0  0  0  0
  4  6  1  0  0  0  0
  4  8  2  0  0  0  0
  4 10  1  0  0  0  0
  5  9  1  0  0  0  0
  5 24  1  0  0  0  0
  6 25  1  0  0  0  0
  6 26  1  0  0  0  0
  7 11  1  0  0  0  0
  7 28  1  0  0  0  0
  7 29  1  0  0  0  0
  8 30  1  0  0  0  0
  9 10  2  0  0  0  0
  9 21  1  0  0  0  0
 10 19  1  0  0  0  0
 11 12  1  0  0  0  0
 11 31  1  0  0  0  0
 11 32  1  0  0  0  0
 12 17  1  0  0  0  0
 12 33  1  0  0  0  0
 13 14  1  0  0  0  0
 13 34  1  0  0  0  0
 13 35  1  0  0  0  0
 14 36  1  0  0  0  0
 14 37  1  0  0  0  0
 14 38  1  0  0  0  0
 15 16  1  0  0  0  0
 15 39  1  0  0  0  0
 15 40  1  0  0  0  0
 16 41  1  0  0  0  0
 16 42  1  0  0  0  0
 16 43  1  0  0  0  0
 17 18  1  0  0  0  0
 17 44  1  0  0  0  0
 17 45  1  0  0  0  0
 18 46  1  0  0  0  0
 18 47  1  0  0  0  0
 19 23  1  0  0  0  0
M  END
> <ConfScore>
-0.516844 

$$$$
4agm


 47 48  0  0  0  0  0  0  0  0999 V2000
   90.4980   98.3810  -44.6910 N   0  3  0  1  0  4  0  0  0  0  0  0
   92.0405  102.3576  -44.2461 N   0  3  0  1  0  4  0  0  0  0  0  0
   91.5929   94.7456  -42.9390 C   0  0  0  1  0  3  0  0  0  0  0  0
   90.4774   95.8983  -44.7669 C   0  0  0  1  0  3  0  0  0  0  0  0
   91.6872   93.5770  -43.7058 C   0  0  0  1  0  3  0  0  0  0  0  0
   89.9050   97.1660  -45.3350 C   0  0  0  1  0  4  0  0  0  0  0  0
   89.5430   99.5450  -44.7170 C   0  0  0  1  0  4  0  0  0  0  0  0
   90.9930   95.9002  -43.4646 C   0  0  0  1  0  3  0  0  0  0  0  0
   91.1613   93.5944  -45.0079 C   0  0  0  1  0  3  0  0  0  0  0  0
   90.5548   94.7320  -45.5729 C   0  0  0  1  0  3  0  0  0  0  0  0
   90.1750  100.7310  -44.0050 C   0  0  0  1  0  4  0  0  0  0  0  0
   91.4300  101.0810  -44.8020 C   0  0  0  1  0  4  0  0  0  0  0  0
   91.0149  103.4776  -44.2294 C   0  0  0  1  0  4  0  0  0  0  0  0
   91.5572  104.7776  -43.6608 C   0  0  0  1  0  4  0  0  0  0  0  0
   93.2913  102.7775  -44.9866 C   0  0  0  1  0  4  0  0  0  0  0  0
   93.8992  104.0685  -44.4547 C   0  0  0  1  0  4  0  0  0  0  0  0
   92.4510   99.9400  -44.6950 C   0  0  0  1  0  4  0  0  0  0  0  0
   91.8210   98.7070  -45.3220 C   0  0  0  1  0  4  0  0  0  0  0  0
   90.0598   94.7146  -46.8479 O   0  0  0  1  0  2  0  0  0  0  0  0
   92.3632   94.7700  -40.9675 I   0  0  0  1  0  1  0  0  0  0  0  0
   91.2865   91.8292  -46.1741 I   0  0  0  1  0  1  0  0  0  0  0  0
   90.6654   98.1803  -43.7171 H   0  0  0  1  0  1  0  0  0  0  0  0
   89.1314   94.5143  -46.8226 H   0  0  0  1  0  1  0  0  0  0  0  0
   92.1531   92.6841  -43.3051 H   0  0  0  1  0  1  0  0  0  0  0  0
   90.1132   97.1980  -46.4158 H   0  0  0  1  0  1  0  0  0  0  0  0
   88.8172   97.1707  -45.1702 H   0  0  0  1  0  1  0  0  0  0  0  0
   92.3060  102.1718  -43.2908 H   0  0  0  1  0  1  0  0  0  0  0  0
   88.6095   99.2654  -44.2068 H   0  0  0  1  0  1  0  0  0  0  0  0
   89.3242   99.8170  -45.7598 H   0  0  0  1  0  1  0  0  0  0  0  0
   90.9284   96.7979  -42.8598 H   0  0  0  1  0  1  0  0  0  0  0  0
   90.4413  100.4594  -42.9731 H   0  0  0  1  0  1  0  0  0  0  0  0
   89.4801  101.5838  -43.9926 H   0  0  0  1  0  1  0  0  0  0  0  0
   91.1614  101.2320  -45.8572 H   0  0  0  1  0  1  0  0  0  0  0  0
   90.1573  103.1593  -43.6171 H   0  0  0  1  0  1  0  0  0  0  0  0
   90.6794  103.6604  -45.2606 H   0  0  0  1  0  1  0  0  0  0  0  0
   91.8723  104.6183  -42.6186 H   0  0  0  1  0  1  0  0  0  0  0  0
   90.7734  105.5489  -43.6937 H   0  0  0  1  0  1  0  0  0  0  0  0
   92.4208  105.1072  -44.2582 H   0  0  0  1  0  1  0  0  0  0  0  0
   93.0374  102.9220  -46.0468 H   0  0  0  1  0  1  0  0  0  0  0  0
   94.0381  101.9750  -44.8938 H   0  0  0  1  0  1  0  0  0  0  0  0
   94.8113  104.3059  -45.0212 H   0  0  0  1  0  1  0  0  0  0  0  0
   94.1517  103.9438  -43.3911 H   0  0  0  1  0  1  0  0  0  0  0  0
   93.1755  104.8891  -44.5654 H   0  0  0  1  0  1  0  0  0  0  0  0
   92.6876   99.7454  -43.6396 H   0  0  0  1  0  1  0  0  0  0  0  0
   93.3718  100.2075  -45.2346 H   0  0  0  1  0  1  0  0  0  0  0  0
   91.6686   98.8910  -46.3961 H   0  0  0  1  0  1  0  0  0  0  0  0
   92.4999   97.8526  -45.1887 H   0  0  0  1  0  1  0  0  0  0  0  0
  1  6  1  0  0  0  0
  1  7  1  0  0  0  0
  1 18  1  0  0  0  0
  1 22  1  0  0  0  0
  2 12  1  0  0  0  0
  2 13  1  0  0  0  0
  2 15  1  0  0  0  0
  2 27  1  0  0  0  0
  3  5  2  0  0  0  0
  3  8  1  0  0  0  0
  3 20  1  0  0  0  0
  4  6  1  0  0  0  0
  4  8  2  0  0  0  0
  4 10  1  0  0  0  0
  5  9  1  0  0  0  0
  5 24  1  0  0  0  0
  6 25  1  0  0  0  0
  6 26  1  0  0  0  0
  7 11  1  0  0  0  0
  7 28  1  0  0  0  0
  7 29  1  0  0  0  0
  8 30  1  0  0  0  0
  9 10  2  0  0  0  0
  9 21  1  0  0  0  0
 10 19  1  0  0  0  0
 11 12  1  0  0  0  0
 11 31  1  0  0  0  0
 11 32  1  0  0  0  0
 12 17  1  0  0  0  0
 12 33  1  0  0  0  0
 13 14  1  0  0  0  0
 13 34  1  0  0  0  0
 13 35  1  0  0  0  0
 14 36  1  0  0  0  0
 14 37  1  0  0  0  0
 14 38  1  0  0  0  0
 15 16  1  0  0  0  0
 15 39  1  0  0  0  0
 15 40  1  0  0  0  0
 16 41  1  0  0  0  0
 16 42  1  0  0  0  0
 16 43  1  0  0  0  0
 17 18  1  0  0  0  0
 17 44  1  0  0  0  0
 17 45  1  0  0  0  0
 18 46  1  0  0  0  0
 18 47  1  0  0  0  0
 19 23  1  0  0  0  0
M  END
> <ConfScore>
-0.513444 

$$$$
4agm


 47 48  0  0  0  0  0  0  0  0999 V2000
   90.4980   98.3810  -44.6910 N   0  3  0  1  0  4  0  0  0  0  0  0
   92.0405  102.3576  -44.2461 N   0  3  0  1  0  4  0  0  0  0  0  0
   91.5929   94.7456  -42.9390 C   0  0  0  1  0  3  0  0  0  0  0  0
   90.4774   95.8983  -44.7669 C   0  0  0  1  0  3  0  0  0  0  0  0
   91.6872   93.5770  -43.7058 C   0  0  0  1  0  3  0  0  0  0  0  0
   89.9050   97.1660  -45.3350 C   0  0  0  1  0  4  0  0  0  0  0  0
   89.5430   99.5450  -44.7170 C   0  0  0  1  0  4  0  0  0  0  0  0
   90.9930   95.9002  -43.4646 C   0  0  0  1  0  3  0  0  0  0  0  0
   91.1613   93.5944  -45.0079 C   0  0  0  1  0  3  0  0  0  0  0  0
   90.5548   94.7320  -45.5729 C   0  0  0  1  0  3  0  0  0  0  0  0
   90.1750  100.7310  -44.0050 C   0  0  0  1  0  4  0  0  0  0  0  0
   91.4300  101.0810  -44.8020 C   0  0  0  1  0  4  0  0  0  0  0  0
   91.0149  103.4776  -44.2294 C   0  0  0  1  0  4  0  0  0  0  0  0
   91.5572  104.7776  -43.6608 C   0  0  0  1  0  4  0  0  0  0  0  0
   93.2913  102.7775  -44.9866 C   0  0  0  1  0  4  0  0  0  0  0  0
   93.8992  104.0685  -44.4547 C   0  0  0  1  0  4  0  0  0  0  0  0
   92.4510   99.9400  -44.6950 C   0  0  0  1  0  4  0  0  0  0  0  0
   91.8210   98.7070  -45.3220 C   0  0  0  1  0  4  0  0  0  0  0  0
   90.0598   94.7146  -46.8479 O   0  0  0  1  0  2  0  0  0  0  0  0
   92.3632   94.7700  -40.9675 I   0  0  0  1  0  1  0  0  0  0  0  0
   91.2865   91.8292  -46.1741 I   0  0  0  1  0  1  0  0  0  0  0  0
   90.6654   98.1803  -43.7171 H   0  0  0  1  0  1  0  0  0  0  0  0
   89.1314   94.5143  -46.8226 H   0  0  0  1  0  1  0  0  0  0  0  0
   92.1531   92.6841  -43.3051 H   0  0  0  1  0  1  0  0  0  0  0  0
   90.1132   97.1980  -46.4158 H   0  0  0  1  0  1  0  0  0  0  0  0
   88.8172   97.1707  -45.1702 H   0  0  0  1  0  1  0  0  0  0  0  0
   92.3060  102.1718  -43.2908 H   0  0  0  1  0  1  0  0  0  0  0  0
   88.6095   99.2654  -44.2068 H   0  0  0  1  0  1  0  0  0  0  0  0
   89.3242   99.8170  -45.7598 H   0  0  0  1  0  1  0  0  0  0  0  0
   90.9284   96.7979  -42.8598 H   0  0  0  1  0  1  0  0  0  0  0  0
   90.4413  100.4594  -42.9731 H   0  0  0  1  0  1  0  0  0  0  0  0
   89.4801  101.5838  -43.9926 H   0  0  0  1  0  1  0  0  0  0  0  0
   91.1614  101.2320  -45.8572 H   0  0  0  1  0  1  0  0  0  0  0  0
   90.1573  103.1593  -43.6171 H   0  0  0  1  0  1  0  0  0  0  0  0
   90.6794  103.6604  -45.2606 H   0  0  0  1  0  1  0  0  0  0  0  0
   91.8723  104.6183  -42.6186 H   0  0  0  1  0  1  0  0  0  0  0  0
   90.7734  105.5489  -43.6937 H   0  0  0  1  0  1  0  0  0  0  0  0
   92.4208  105.1072  -44.2582 H   0  0  0  1  0  1  0  0  0  0  0  0
   93.0374  102.9220  -46.0468 H   0  0  0  1  0  1  0  0  0  0  0  0
   94.0381  101.9750  -44.8938 H   0  0  0  1  0  1  0  0  0  0  0  0
   94.1520  103.9449  -43.3916 H   0  0  0  1  0  1  0  0  0  0  0  0
   93.1735  104.8881  -44.5649 H   0  0  0  1  0  1  0  0  0  0  0  0
   94.8103  104.3075  -45.0222 H   0  0  0  1  0  1  0  0  0  0  0  0
   92.6876   99.7454  -43.6396 H   0  0  0  1  0  1  0  0  0  0  0  0
   93.3718  100.2075  -45.2346 H   0  0  0  1  0  1  0  0  0  0  0  0
   91.6686   98.8910  -46.3961 H   0  0  0  1  0  1  0  0  0  0  0  0
   92.4999   97.8526  -45.1887 H   0  0  0  1  0  1  0  0  0  0  0  0
  1  6  1  0  0  0  0
  1  7  1  0  0  0  0
  1 18  1  0  0  0  0
  1 22  1  0  0  0  0
  2 12  1  0  0  0  0
  2 13  1  0  0  0  0
  2 15  1  0  0  0  0
  2 27  1  0  0  0  0
  3  5  2  0  0  0  0
  3  8  1  0  0  0  0
  3 20  1  0  0  0  0
  4  6  1  0  0  0  0
  4  8  2  0  0  0  0
  4 10  1  0  0  0  0
  5  9  1  0  0  0  0
  5 24  1  0  0  0  0
  6 25  1  0  0  0  0
  6 26  1  0  0  0  0
  7 11  1  0  0  0  0
  7 28  1  0  0  0  0
  7 29  1  0  0  0  0
  8 30  1  0  0  0  0
  9 10  2  0  0  0  0
  9 21  1  0  0  0  0
 10 19  1  0  0  0  0
 11 12  1  0  0  0  0
 11 31  1  0  0  0  0
 11 32  1  0  0  0  0
 12 17  1  0  0  0  0
 12 33  1  0  0  0  0
 13 14  1  0  0  0  0
 13 34  1  0  0  0  0
 13 35  1  0  0  0  0
 14 36  1  0  0  0  0
 14 37  1  0  0  0  0
 14 38  1  0  0  0  0
 15 16  1  0  0  0  0
 15 39  1  0  0  0  0
 15 40  1  0  0  0  0
 16 41  1  0  0  0  0
 16 42  1  0  0  0  0
 16 43  1  0  0  0  0
 17 18  1  0  0  0  0
 17 44  1  0  0  0  0
 17 45  1  0  0  0  0
 18 46  1  0  0  0  0
 18 47  1  0  0  0  0
 19 23  1  0  0  0  0
M  END
> <ConfScore>
-0.513444 

$$$$
4agm


 47 48  0  0  0  0  0  0  0  0999 V2000
   90.4980   98.3810  -44.6910 N   0  3  0  1  0  4  0  0  0  0  0  0
   92.0405  102.3576  -44.2461 N   0  3  0  1  0  4  0  0  0  0  0  0
   86.2438   96.8486  -44.3640 C   0  0  0  1  0  3  0  0  0  0  0  0
   88.6574   96.7142  -44.6303 C   0  0  0  1  0  3  0  0  0  0  0  0
   86.2985   96.0010  -43.2499 C   0  0  0  1  0  3  0  0  0  0  0  0
   89.9050   97.1660  -45.3350 C   0  0  0  1  0  4  0  0  0  0  0  0
   89.5430   99.5450  -44.7170 C   0  0  0  1  0  4  0  0  0  0  0  0
   87.4146   97.2049  -45.0506 C   0  0  0  1  0  3  0  0  0  0  0  0
   87.5536   95.5171  -42.8462 C   0  0  0  1  0  3  0  0  0  0  0  0
   88.7511   95.8527  -43.5056 C   0  0  0  1  0  3  0  0  0  0  0  0
   90.1750  100.7310  -44.0050 C   0  0  0  1  0  4  0  0  0  0  0  0
   91.4300  101.0810  -44.8020 C   0  0  0  1  0  4  0  0  0  0  0  0
   91.0627  103.5137  -44.3648 C   0  0  0  1  0  4  0  0  0  0  0  0
   89.6139  103.0929  -44.1878 C   0  0  0  1  0  4  0  0  0  0  0  0
   93.3664  102.6994  -44.8897 C   0  0  0  1  0  4  0  0  0  0  0  0
   94.4715  101.7077  -44.5516 C   0  0  0  1  0  4  0  0  0  0  0  0
   92.4510   99.9400  -44.6950 C   0  0  0  1  0  4  0  0  0  0  0  0
   91.8210   98.7070  -45.3220 C   0  0  0  1  0  4  0  0  0  0  0  0
   89.9572   95.3680  -43.0797 O   0  0  0  1  0  2  0  0  0  0  0  0
   84.3759   97.5995  -45.0182 I   0  0  0  1  0  1  0  0  0  0  0  0
   87.6489   94.2241  -41.1698 I   0  0  0  1  0  1  0  0  0  0  0  0
   90.6654   98.1803  -43.7171 H   0  0  0  1  0  1  0  0  0  0  0  0
   90.1735   94.5848  -43.5720 H   0  0  0  1  0  1  0  0  0  0  0  0
   85.3971   95.7263  -42.7143 H   0  0  0  1  0  1  0  0  0  0  0  0
   90.6449   96.3510  -45.3073 H   0  0  0  1  0  1  0  0  0  0  0  0
   89.6576   97.4021  -46.3807 H   0  0  0  1  0  1  0  0  0  0  0  0
   92.2147  102.2040  -43.2644 H   0  0  0  1  0  1  0  0  0  0  0  0
   88.6095   99.2654  -44.2068 H   0  0  0  1  0  1  0  0  0  0  0  0
   89.3242   99.8170  -45.7598 H   0  0  0  1  0  1  0  0  0  0  0  0
   87.3569   97.8629  -45.9105 H   0  0  0  1  0  1  0  0  0  0  0  0
   90.4413  100.4594  -42.9731 H   0  0  0  1  0  1  0  0  0  0  0  0
   89.4801  101.5838  -43.9926 H   0  0  0  1  0  1  0  0  0  0  0  0
   91.1614  101.2320  -45.8572 H   0  0  0  1  0  1  0  0  0  0  0  0
   91.1754  103.9679  -45.3611 H   0  0  0  1  0  1  0  0  0  0  0  0
   91.3066  104.2590  -43.5939 H   0  0  0  1  0  1  0  0  0  0  0  0
   89.4853  102.6301  -43.1979 H   0  0  0  1  0  1  0  0  0  0  0  0
   89.3431  102.3681  -44.9700 H   0  0  0  1  0  1  0  0  0  0  0  0
   88.9630  103.9768  -44.2663 H   0  0  0  1  0  1  0  0  0  0  0  0
   93.6750  103.6970  -44.5448 H   0  0  0  1  0  1  0  0  0  0  0  0
   93.2313  102.7137  -45.9814 H   0  0  0  1  0  1  0  0  0  0  0  0
   94.6270  101.6877  -43.4631 H   0  0  0  1  0  1  0  0  0  0  0  0
   95.4041  102.0146  -45.0483 H   0  0  0  1  0  1  0  0  0  0  0  0
   94.1847  100.7044  -44.8989 H   0  0  0  1  0  1  0  0  0  0  0  0
   92.6876   99.7454  -43.6396 H   0  0  0  1  0  1  0  0  0  0  0  0
   93.3718  100.2075  -45.2346 H   0  0  0  1  0  1  0  0  0  0  0  0
   91.6686   98.8910  -46.3961 H   0  0  0  1  0  1  0  0  0  0  0  0
   92.4999   97.8526  -45.1887 H   0  0  0  1  0  1  0  0  0  0  0  0
  1  6  1  0  0  0  0
  1  7  1  0  0  0  0
  1 18  1  0  0  0  0
  1 22  1  0  0  0  0
  2 12  1  0  0  0  0
  2 13  1  0  0  0  0
  2 15  1  0  0  0  0
  2 27  1  0  0  0  0
  3  5  2  0  0  0  0
  3  8  1  0  0  0  0
  3 20  1  0  0  0  0
  4  6  1  0  0  0  0
  4  8  2  0  0  0  0
  4 10  1  0  0  0  0
  5  9  1  0  0  0  0
  5 24  1  0  0  0  0
  6 25  1  0  0  0  0
  6 26  1  0  0  0  0
  7 11  1  0  0  0  0
  7 28  1  0  0  0  0
  7 29  1  0  0  0  0
  8 30  1  0  0  0  0
  9 10  2  0  0  0  0
  9 21  1  0  0  0  0
 10 19  1  0  0  0  0
 11 12  1  0  0  0  0
 11 31  1  0  0  0  0
 11 32  1  0  0  0  0
 12 17  1  0  0  0  0
 12 33  1  0  0  0  0
 13 14  1  0  0  0  0
 13 34  1  0  0  0  0
 13 35  1  0  0  0  0
 14 36  1  0  0  0  0
 14 37  1  0  0  0  0
 14 38  1  0  0  0  0
 15 16  1  0  0  0  0
 15 39  1  0  0  0  0
 15 40  1  0  0  0  0
 16 41  1  0  0  0  0
 16 42  1  0  0  0  0
 16 43  1  0  0  0  0
 17 18  1  0  0  0  0
 17 44  1  0  0  0  0
 17 45  1  0  0  0  0
 18 46  1  0  0  0  0
 18 47  1  0  0  0  0
 19 23  1  0  0  0  0
M  END
> <ConfScore>
-0.510269 

$$$$
4agm


 47 48  0  0  0  0  0  0  0  0999 V2000
    5.4320    2.2550   28.3390 N   0  3  0  1  0  4  0  0  0  0  0  0
    4.7958   -1.2938   27.7582 N   0  3  0  1  0  4  0  0  0  0  0  0
    8.5794    5.9884   27.9655 C   0  0  0  1  0  3  0  0  0  0  0  0
    6.8799    4.3500   28.3599 C   0  0  0  1  0  3  0  0  0  0  0  0
    7.6880    6.7182   27.2104 C   0  0  0  1  0  3  0  0  0  0  0  0
    6.4640    3.0610   28.9950 C   0  0  0  1  0  4  0  0  0  0  0  0
    6.0520    1.4770   27.2550 C   0  0  0  1  0  4  0  0  0  0  0  0
    8.1699    4.8170   28.5532 C   0  0  0  1  0  3  0  0  0  0  0  0
    6.3835    6.2718   27.0379 C   0  0  0  1  0  3  0  0  0  0  0  0
    5.9752    5.0884   27.6156 C   0  0  0  1  0  3  0  0  0  0  0  0
    4.9600    0.8100   26.4490 C   0  0  0  1  0  4  0  0  0  0  0  0
    4.0370   -0.0500   27.3240 C   0  0  0  1  0  4  0  0  0  0  0  0
    5.6556   -0.9980   28.9748 C   0  0  0  1  0  4  0  0  0  0  0  0
    6.3844   -2.2210   29.5044 C   0  0  0  1  0  4  0  0  0  0  0  0
    5.6224   -1.8933   26.6418 C   0  0  0  1  0  4  0  0  0  0  0  0
    6.7540   -0.9857   26.1783 C   0  0  0  1  0  4  0  0  0  0  0  0
    3.5580    0.6920   28.5700 C   0  0  0  1  0  4  0  0  0  0  0  0
    4.7240    1.3610   29.2750 C   0  0  0  1  0  4  0  0  0  0  0  0
    4.6902    4.6482   27.4551 O   0  0  0  1  0  2  0  0  0  0  0  0
   10.5680    6.6685   28.2184 I   0  0  0  1  0  1  0  0  0  0  0  0
    5.0190    7.4119   25.8849 I   0  0  0  1  0  1  0  0  0  0  0  0
    4.7368    2.8838   27.9672 H   0  0  0  1  0  1  0  0  0  0  0  0
    4.5946    4.2630   26.5920 H   0  0  0  1  0  1  0  0  0  0  0  0
    8.0059    7.6457   26.7482 H   0  0  0  1  0  1  0  0  0  0  0  0
    7.3649    2.4328   29.0731 H   0  0  0  1  0  1  0  0  0  0  0  0
    6.0951    3.3010   30.0034 H   0  0  0  1  0  1  0  0  0  0  0  0
    4.1113   -1.9839   28.0280 H   0  0  0  1  0  1  0  0  0  0  0  0
    6.7161    0.7114   27.6825 H   0  0  0  1  0  1  0  0  0  0  0  0
    6.6342    2.1468   26.6055 H   0  0  0  1  0  1  0  0  0  0  0  0
    8.8599    4.2542   29.1720 H   0  0  0  1  0  1  0  0  0  0  0  0
    5.4246    0.1679   25.6865 H   0  0  0  1  0  1  0  0  0  0  0  0
    4.3577    1.5879   25.9566 H   0  0  0  1  0  1  0  0  0  0  0  0
    3.1603   -0.3439   26.7295 H   0  0  0  1  0  1  0  0  0  0  0  0
    5.0096   -0.6031   29.7737 H   0  0  0  1  0  1  0  0  0  0  0  0
    6.4019   -0.2386   28.6997 H   0  0  0  1  0  1  0  0  0  0  0  0
    7.0316   -2.6321   28.7151 H   0  0  0  1  0  1  0  0  0  0  0  0
    5.6514   -2.9818   29.8116 H   0  0  0  1  0  1  0  0  0  0  0  0
    7.0001   -1.9347   30.3706 H   0  0  0  1  0  1  0  0  0  0  0  0
    4.9611   -2.0919   25.7858 H   0  0  0  1  0  1  0  0  0  0  0  0
    6.0564   -2.8395   26.9979 H   0  0  0  1  0  1  0  0  0  0  0  0
    7.4212   -0.7686   27.0251 H   0  0  0  1  0  1  0  0  0  0  0  0
    6.3345   -0.0444   25.7929 H   0  0  0  1  0  1  0  0  0  0  0  0
    7.3241   -1.4856   25.3818 H   0  0  0  1  0  1  0  0  0  0  0  0
    3.0837   -0.0234   29.2562 H   0  0  0  1  0  1  0  0  0  0  0  0
    2.8260    1.4586   28.2751 H   0  0  0  1  0  1  0  0  0  0  0  0
    4.3471    1.9485   30.1257 H   0  0  0  1  0  1  0  0  0  0  0  0
    5.4192    0.5914   29.6398 H   0  0  0  1  0  1  0  0  0  0  0  0
  1  6  1  0  0  0  0
  1  7  1  0  0  0  0
  1 18  1  0  0  0  0
  1 22  1  0  0  0  0
  2 12  1  0  0  0  0
  2 13  1  0  0  0  0
  2 15  1  0  0  0  0
  2 27  1  0  0  0  0
  3  5  2  0  0  0  0
  3  8  1  0  0  0  0
  3 20  1  0  0  0  0
  4  6  1  0  0  0  0
  4  8  2  0  0  0  0
  4 10  1  0  0  0  0
  5  9  1  0  0  0  0
  5 24  1  0  0  0  0
  6 25  1  0  0  0  0
  6 26  1  0  0  0  0
  7 11  1  0  0  0  0
  7 28  1  0  0  0  0
  7 29  1  0  0  0  0
  8 30  1  0  0  0  0
  9 10  2  0  0  0  0
  9 21  1  0  0  0  0
 10 19  1  0  0  0  0
 11 12  1  0  0  0  0
 11 31  1  0  0  0  0
 11 32  1  0  0  0  0
 12 17  1  0  0  0  0
 12 33  1  0  0  0  0
 13 14  1  0  0  0  0
 13 34  1  0  0  0  0
 13 35  1  0  0  0  0
 14 36  1  0  0  0  0
 14 37  1  0  0  0  0
 14 38  1  0  0  0  0
 15 16  1  0  0  0  0
 15 39  1  0  0  0  0
 15 40  1  0  0  0  0
 16 41  1  0  0  0  0
 16 42  1  0  0  0  0
 16 43  1  0  0  0  0
 17 18  1  0  0  0  0
 17 44  1  0  0  0  0
 17 45  1  0  0  0  0
 18 46  1  0  0  0  0
 18 47  1  0  0  0  0
 19 23  1  0  0  0  0
M  END
> <ConfScore>
-0.506683 

$$$$
4agm


 47 48  0  0  0  0  0  0  0  0999 V2000
    5.4320    2.2550   28.3390 N   0  3  0  1  0  4  0  0  0  0  0  0
    4.7958   -1.2938   27.7582 N   0  3  0  1  0  4  0  0  0  0  0  0
    8.5466    6.0174   27.9815 C   0  0  0  1  0  3  0  0  0  0  0  0
    6.8637    4.3610   28.3719 C   0  0  0  1  0  3  0  0  0  0  0  0
    7.6423    6.7494   27.2440 C   0  0  0  1  0  3  0  0  0  0  0  0
    6.4640    3.0610   28.9950 C   0  0  0  1  0  4  0  0  0  0  0  0
    6.0520    1.4770   27.2550 C   0  0  0  1  0  4  0  0  0  0  0  0
    8.1519    4.8356   28.5586 C   0  0  0  1  0  3  0  0  0  0  0  0
    6.3397    6.2948   27.0785 C   0  0  0  1  0  3  0  0  0  0  0  0
    5.9462    5.1012   27.6454 C   0  0  0  1  0  3  0  0  0  0  0  0
    4.9600    0.8100   26.4490 C   0  0  0  1  0  4  0  0  0  0  0  0
    4.0370   -0.0500   27.3240 C   0  0  0  1  0  4  0  0  0  0  0  0
    5.6556   -0.9980   28.9748 C   0  0  0  1  0  4  0  0  0  0  0  0
    6.8028   -0.0469   28.6801 C   0  0  0  1  0  4  0  0  0  0  0  0
    5.6224   -1.8933   26.6418 C   0  0  0  1  0  4  0  0  0  0  0  0
    6.7540   -0.9857   26.1783 C   0  0  0  1  0  4  0  0  0  0  0  0
    3.5580    0.6920   28.5700 C   0  0  0  1  0  4  0  0  0  0  0  0
    4.7240    1.3610   29.2750 C   0  0  0  1  0  4  0  0  0  0  0  0
    4.6631    4.6530   27.4918 O   0  0  0  1  0  2  0  0  0  0  0  0
   10.5322    6.7100   28.2238 I   0  0  0  1  0  1  0  0  0  0  0  0
    4.9554    7.4382   25.9527 I   0  0  0  1  0  1  0  0  0  0  0  0
    4.7368    2.8838   27.9672 H   0  0  0  1  0  1  0  0  0  0  0  0
    4.5622    4.2776   26.6249 H   0  0  0  1  0  1  0  0  0  0  0  0
    7.9485    7.6849   26.7903 H   0  0  0  1  0  1  0  0  0  0  0  0
    7.3704    2.4390   29.0568 H   0  0  0  1  0  1  0  0  0  0  0  0
    6.1030    3.2858   30.0097 H   0  0  0  1  0  1  0  0  0  0  0  0
    4.1113   -1.9839   28.0280 H   0  0  0  1  0  1  0  0  0  0  0  0
    6.7161    0.7114   27.6825 H   0  0  0  1  0  1  0  0  0  0  0  0
    6.6342    2.1468   26.6055 H   0  0  0  1  0  1  0  0  0  0  0  0
    8.8522    4.2708   29.1638 H   0  0  0  1  0  1  0  0  0  0  0  0
    5.4246    0.1679   25.6865 H   0  0  0  1  0  1  0  0  0  0  0  0
    4.3577    1.5879   25.9566 H   0  0  0  1  0  1  0  0  0  0  0  0
    3.1603   -0.3439   26.7295 H   0  0  0  1  0  1  0  0  0  0  0  0
    6.0742   -1.9454   29.3476 H   0  0  0  1  0  1  0  0  0  0  0  0
    5.0202   -0.5487   29.7517 H   0  0  0  1  0  1  0  0  0  0  0  0
    6.4012    0.9047   28.3006 H   0  0  0  1  0  1  0  0  0  0  0  0
    7.4659   -0.4932   27.9242 H   0  0  0  1  0  1  0  0  0  0  0  0
    7.3723    0.1382   29.6035 H   0  0  0  1  0  1  0  0  0  0  0  0
    4.9611   -2.0919   25.7858 H   0  0  0  1  0  1  0  0  0  0  0  0
    6.0564   -2.8395   26.9979 H   0  0  0  1  0  1  0  0  0  0  0  0
    7.4212   -0.7686   27.0251 H   0  0  0  1  0  1  0  0  0  0  0  0
    6.3345   -0.0444   25.7929 H   0  0  0  1  0  1  0  0  0  0  0  0
    7.3241   -1.4856   25.3818 H   0  0  0  1  0  1  0  0  0  0  0  0
    3.0837   -0.0234   29.2562 H   0  0  0  1  0  1  0  0  0  0  0  0
    2.8260    1.4586   28.2751 H   0  0  0  1  0  1  0  0  0  0  0  0
    4.3471    1.9485   30.1257 H   0  0  0  1  0  1  0  0  0  0  0  0
    5.4192    0.5914   29.6398 H   0  0  0  1  0  1  0  0  0  0  0  0
  1  6  1  0  0  0  0
  1  7  1  0  0  0  0
  1 18  1  0  0  0  0
  1 22  1  0  0  0  0
  2 12  1  0  0  0  0
  2 13  1  0  0  0  0
  2 15  1  0  0  0  0
  2 27  1  0  0  0  0
  3  5  2  0  0  0  0
  3  8  1  0  0  0  0
  3 20  1  0  0  0  0
  4  6  1  0  0  0  0
  4  8  2  0  0  0  0
  4 10  1  0  0  0  0
  5  9  1  0  0  0  0
  5 24  1  0  0  0  0
  6 25  1  0  0  0  0
  6 26  1  0  0  0  0
  7 11  1  0  0  0  0
  7 28  1  0  0  0  0
  7 29  1  0  0  0  0
  8 30  1  0  0  0  0
  9 10  2  0  0  0  0
  9 21  1  0  0  0  0
 10 19  1  0  0  0  0
 11 12  1  0  0  0  0
 11 31  1  0  0  0  0
 11 32  1  0  0  0  0
 12 17  1  0  0  0  0
 12 33  1  0  0  0  0
 13 14  1  0  0  0  0
 13 34  1  0  0  0  0
 13 35  1  0  0  0  0
 14 36  1  0  0  0  0
 14 37  1  0  0  0  0
 14 38  1  0  0  0  0
 15 16  1  0  0  0  0
 15 39  1  0  0  0  0
 15 40  1  0  0  0  0
 16 41  1  0  0  0  0
 16 42  1  0  0  0  0
 16 43  1  0  0  0  0
 17 18  1  0  0  0  0
 17 44  1  0  0  0  0
 17 45  1  0  0  0  0
 18 46  1  0  0  0  0
 18 47  1  0  0  0  0
 19 23  1  0  0  0  0
M  END
> <ConfScore>
-0.505676 

$$$$
4agm


 47 48  0  0  0  0  0  0  0  0999 V2000
   90.4980   98.3810  -44.6910 N   0  3  0  1  0  4  0  0  0  0  0  0
   92.0405  102.3576  -44.2461 N   0  3  0  1  0  4  0  0  0  0  0  0
   91.3627   94.6790  -42.8575 C   0  0  0  1  0  3  0  0  0  0  0  0
   90.0567   95.9466  -44.4705 C   0  0  0  1  0  3  0  0  0  0  0  0
   90.4561   93.6135  -42.9293 C   0  0  0  1  0  3  0  0  0  0  0  0
   89.9050   97.1660  -45.3350 C   0  0  0  1  0  4  0  0  0  0  0  0
   89.5430   99.5450  -44.7170 C   0  0  0  1  0  4  0  0  0  0  0  0
   91.1666   95.8386  -43.6230 C   0  0  0  1  0  3  0  0  0  0  0  0
   89.3479   93.7424  -43.7824 C   0  0  0  1  0  3  0  0  0  0  0  0
   89.1168   94.8869  -44.5685 C   0  0  0  1  0  3  0  0  0  0  0  0
   90.1750  100.7310  -44.0050 C   0  0  0  1  0  4  0  0  0  0  0  0
   91.4300  101.0810  -44.8020 C   0  0  0  1  0  4  0  0  0  0  0  0
   91.0627  103.5137  -44.3648 C   0  0  0  1  0  4  0  0  0  0  0  0
   89.7362  103.2491  -43.6737 C   0  0  0  1  0  4  0  0  0  0  0  0
   93.3664  102.6994  -44.8897 C   0  0  0  1  0  4  0  0  0  0  0  0
   94.4437  101.6528  -44.6381 C   0  0  0  1  0  4  0  0  0  0  0  0
   92.4510   99.9400  -44.6950 C   0  0  0  1  0  4  0  0  0  0  0  0
   91.8210   98.7070  -45.3220 C   0  0  0  1  0  4  0  0  0  0  0  0
   88.0298   94.9747  -45.3941 O   0  0  0  1  0  2  0  0  0  0  0  0
   93.0457   94.5383  -41.5813 I   0  0  0  1  0  1  0  0  0  0  0  0
   87.9621   92.1427  -43.8909 I   0  0  0  1  0  1  0  0  0  0  0  0
   90.6654   98.1803  -43.7171 H   0  0  0  1  0  1  0  0  0  0  0  0
   88.1779   95.6569  -46.0385 H   0  0  0  1  0  1  0  0  0  0  0  0
   90.6057   92.7144  -42.3427 H   0  0  0  1  0  1  0  0  0  0  0  0
   90.4135   96.9876  -46.2952 H   0  0  0  1  0  1  0  0  0  0  0  0
   88.8342   97.3446  -45.5140 H   0  0  0  1  0  1  0  0  0  0  0  0
   92.2147  102.2040  -43.2644 H   0  0  0  1  0  1  0  0  0  0  0  0
   88.6095   99.2654  -44.2068 H   0  0  0  1  0  1  0  0  0  0  0  0
   89.3242   99.8170  -45.7598 H   0  0  0  1  0  1  0  0  0  0  0  0
   91.8776   96.6548  -43.5581 H   0  0  0  1  0  1  0  0  0  0  0  0
   90.4413  100.4594  -42.9731 H   0  0  0  1  0  1  0  0  0  0  0  0
   89.4801  101.5838  -43.9926 H   0  0  0  1  0  1  0  0  0  0  0  0
   91.1614  101.2320  -45.8572 H   0  0  0  1  0  1  0  0  0  0  0  0
   90.8693  103.7017  -45.4320 H   0  0  0  1  0  1  0  0  0  0  0  0
   91.5197  104.4064  -43.9136 H   0  0  0  1  0  1  0  0  0  0  0  0
   89.2523  102.3738  -44.1326 H   0  0  0  1  0  1  0  0  0  0  0  0
   89.0834  104.1281  -43.7814 H   0  0  0  1  0  1  0  0  0  0  0  0
   89.9120  103.0521  -42.6053 H   0  0  0  1  0  1  0  0  0  0  0  0
   93.7131  103.6615  -44.4853 H   0  0  0  1  0  1  0  0  0  0  0  0
   93.2143  102.7908  -45.9754 H   0  0  0  1  0  1  0  0  0  0  0  0
   95.3719  101.9514  -45.1465 H   0  0  0  1  0  1  0  0  0  0  0  0
   94.1089  100.6807  -45.0298 H   0  0  0  1  0  1  0  0  0  0  0  0
   94.6292  101.5679  -43.5575 H   0  0  0  1  0  1  0  0  0  0  0  0
   92.6876   99.7454  -43.6396 H   0  0  0  1  0  1  0  0  0  0  0  0
   93.3718  100.2075  -45.2346 H   0  0  0  1  0  1  0  0  0  0  0  0
   91.6686   98.8910  -46.3961 H   0  0  0  1  0  1  0  0  0  0  0  0
   92.4999   97.8526  -45.1887 H   0  0  0  1  0  1  0  0  0  0  0  0
  1  6  1  0  0  0  0
  1  7  1  0  0  0  0
  1 18  1  0  0  0  0
  1 22  1  0  0  0  0
  2 12  1  0  0  0  0
  2 13  1  0  0  0  0
  2 15  1  0  0  0  0
  2 27  1  0  0  0  0
  3  5  2  0  0  0  0
  3  8  1  0  0  0  0
  3 20  1  0  0  0  0
  4  6  1  0  0  0  0
  4  8  2  0  0  0  0
  4 10  1  0  0  0  0
  5  9  1  0  0  0  0
  5 24  1  0  0  0  0
  6 25  1  0  0  0  0
  6 26  1  0  0  0  0
  7 11  1  0  0  0  0
  7 28  1  0  0  0  0
  7 29  1  0  0  0  0
  8 30  1  0  0  0  0
  9 10  2  0  0  0  0
  9 21  1  0  0  0  0
 10 19  1  0  0  0  0
 11 12  1  0  0  0  0
 11 31  1  0  0  0  0
 11 32  1  0  0  0  0
 12 17  1  0  0  0  0
 12 33  1  0  0  0  0
 13 14  1  0  0  0  0
 13 34  1  0  0  0  0
 13 35  1  0  0  0  0
 14 36  1  0  0  0  0
 14 37  1  0  0  0  0
 14 38  1  0  0  0  0
 15 16  1  0  0  0  0
 15 39  1  0  0  0  0
 15 40  1  0  0  0  0
 16 41  1  0  0  0  0
 16 42  1  0  0  0  0
 16 43  1  0  0  0  0
 17 18  1  0  0  0  0
 17 44  1  0  0  0  0
 17 45  1  0  0  0  0
 18 46  1  0  0  0  0
 18 47  1  0  0  0  0
 19 23  1  0  0  0  0
M  END
> <ConfScore>
-0.484624 

$$$$
4agm


 47 48  0  0  0  0  0  0  0  0999 V2000
   90.4980   98.3810  -44.6910 N   0  3  0  1  0  4  0  0  0  0  0  0
   92.0405  102.3576  -44.2461 N   0  3  0  1  0  4  0  0  0  0  0  0
   92.6689   96.8642  -47.9269 C   0  0  0  1  0  3  0  0  0  0  0  0
   90.6396   96.7850  -46.5890 C   0  0  0  1  0  3  0  0  0  0  0  0
   92.0224   96.2112  -48.9842 C   0  0  0  1  0  3  0  0  0  0  0  0
   89.9050   97.1660  -45.3350 C   0  0  0  1  0  4  0  0  0  0  0  0
   89.5430   99.5450  -44.7170 C   0  0  0  1  0  4  0  0  0  0  0  0
   91.9836   97.1510  -46.7364 C   0  0  0  1  0  3  0  0  0  0  0  0
   90.6758   95.8496  -48.8156 C   0  0  0  1  0  3  0  0  0  0  0  0
   89.9522   96.1214  -47.6393 C   0  0  0  1  0  3  0  0  0  0  0  0
   90.1750  100.7310  -44.0050 C   0  0  0  1  0  4  0  0  0  0  0  0
   91.4300  101.0810  -44.8020 C   0  0  0  1  0  4  0  0  0  0  0  0
   92.4367  102.1715  -42.7917 C   0  0  0  1  0  4  0  0  0  0  0  0
   93.4762  101.0826  -42.5891 C   0  0  0  1  0  4  0  0  0  0  0  0
   91.1358  103.5587  -44.4131 C   0  0  0  1  0  4  0  0  0  0  0  0
   89.7661  103.3724  -43.7741 C   0  0  0  1  0  4  0  0  0  0  0  0
   92.4510   99.9400  -44.6950 C   0  0  0  1  0  4  0  0  0  0  0  0
   91.8210   98.7070  -45.3220 C   0  0  0  1  0  4  0  0  0  0  0  0
   88.6388   95.7607  -47.5131 O   0  0  0  1  0  2  0  0  0  0  0  0
   94.7006   97.4240  -48.1270 I   0  0  0  1  0  1  0  0  0  0  0  0
   89.6894   94.8502  -50.4029 I   0  0  0  1  0  1  0  0  0  0  0  0
   90.6654   98.1803  -43.7171 H   0  0  0  1  0  1  0  0  0  0  0  0
   88.4602   95.5335  -46.6080 H   0  0  0  1  0  1  0  0  0  0  0  0
   92.5468   95.9911  -49.9069 H   0  0  0  1  0  1  0  0  0  0  0  0
   88.8535   97.3736  -45.5871 H   0  0  0  1  0  1  0  0  0  0  0  0
   89.9536   96.3270  -44.6249 H   0  0  0  1  0  1  0  0  0  0  0  0
   92.8821  102.5410  -44.7712 H   0  0  0  1  0  1  0  0  0  0  0  0
   88.6095   99.2654  -44.2068 H   0  0  0  1  0  1  0  0  0  0  0  0
   89.3242   99.8170  -45.7598 H   0  0  0  1  0  1  0  0  0  0  0  0
   92.4967   97.6582  -45.9270 H   0  0  0  1  0  1  0  0  0  0  0  0
   90.4413  100.4594  -42.9731 H   0  0  0  1  0  1  0  0  0  0  0  0
   89.4801  101.5838  -43.9926 H   0  0  0  1  0  1  0  0  0  0  0  0
   91.1614  101.2320  -45.8572 H   0  0  0  1  0  1  0  0  0  0  0  0
   91.5376  101.9081  -42.2139 H   0  0  0  1  0  1  0  0  0  0  0  0
   92.8470  103.1203  -42.4165 H   0  0  0  1  0  1  0  0  0  0  0  0
   94.3805  101.3275  -43.1662 H   0  0  0  1  0  1  0  0  0  0  0  0
   93.0713  100.1189  -42.9322 H   0  0  0  1  0  1  0  0  0  0  0  0
   93.7313  101.0132  -41.5207 H   0  0  0  1  0  1  0  0  0  0  0  0
   90.9973  103.7446  -45.4881 H   0  0  0  1  0  1  0  0  0  0  0  0
   91.6225  104.4296  -43.9495 H   0  0  0  1  0  1  0  0  0  0  0  0
   89.1680  104.2844  -43.9146 H   0  0  0  1  0  1  0  0  0  0  0  0
   89.8871  103.1768  -42.6982 H   0  0  0  1  0  1  0  0  0  0  0  0
   89.2527  102.5216  -44.2454 H   0  0  0  1  0  1  0  0  0  0  0  0
   92.6876   99.7454  -43.6396 H   0  0  0  1  0  1  0  0  0  0  0  0
   93.3718  100.2075  -45.2346 H   0  0  0  1  0  1  0  0  0  0  0  0
   91.6686   98.8910  -46.3961 H   0  0  0  1  0  1  0  0  0  0  0  0
   92.4999   97.8526  -45.1887 H   0  0  0  1  0  1  0  0  0  0  0  0
  1  6  1  0  0  0  0
  1  7  1  0  0  0  0
  1 18  1  0  0  0  0
  1 22  1  0  0  0  0
  2 12  1  0  0  0  0
  2 13  1  0  0  0  0
  2 15  1  0  0  0  0
  2 27  1  0  0  0  0
  3  5  2  0  0  0  0
  3  8  1  0  0  0  0
  3 20  1  0  0  0  0
  4  6  1  0  0  0  0
  4  8  2  0  0  0  0
  4 10  1  0  0  0  0
  5  9  1  0  0  0  0
  5 24  1  0  0  0  0
  6 25  1  0  0  0  0
  6 26  1  0  0  0  0
  7 11  1  0  0  0  0
  7 28  1  0  0  0  0
  7 29  1  0  0  0  0
  8 30  1  0  0  0  0
  9 10  2  0  0  0  0
  9 21  1  0  0  0  0
 10 19  1  0  0  0  0
 11 12  1  0  0  0  0
 11 31  1  0  0  0  0
 11 32  1  0  0  0  0
 12 17  1  0  0  0  0
 12 33  1  0  0  0  0
 13 14  1  0  0  0  0
 13 34  1  0  0  0  0
 13 35  1  0  0  0  0
 14 36  1  0  0  0  0
 14 37  1  0  0  0  0
 14 38  1  0  0  0  0
 15 16  1  0  0  0  0
 15 39  1  0  0  0  0
 15 40  1  0  0  0  0
 16 41  1  0  0  0  0
 16 42  1  0  0  0  0
 16 43  1  0  0  0  0
 17 18  1  0  0  0  0
 17 44  1  0  0  0  0
 17 45  1  0  0  0  0
 18 46  1  0  0  0  0
 18 47  1  0  0  0  0
 19 23  1  0  0  0  0
M  END
> <ConfScore>
-0.482283 

$$$$
4agm


 47 48  0  0  0  0  0  0  0  0999 V2000
   90.4980   98.3810  -44.6910 N   0  3  0  1  0  4  0  0  0  0  0  0
   92.0405  102.3576  -44.2461 N   0  3  0  1  0  4  0  0  0  0  0  0
   91.0477   93.5495  -45.0827 C   0  0  0  1  0  3  0  0  0  0  0  0
   90.4948   95.8988  -44.7838 C   0  0  0  1  0  3  0  0  0  0  0  0
   91.4685   93.4573  -43.7498 C   0  0  0  1  0  3  0  0  0  0  0  0
   89.9050   97.1660  -45.3350 C   0  0  0  1  0  4  0  0  0  0  0  0
   89.5430   99.5450  -44.7170 C   0  0  0  1  0  4  0  0  0  0  0  0
   90.5627   94.7613  -45.5982 C   0  0  0  1  0  3  0  0  0  0  0  0
   91.3956   94.6098  -42.9505 C   0  0  0  1  0  3  0  0  0  0  0  0
   90.9131   95.8428  -43.4281 C   0  0  0  1  0  3  0  0  0  0  0  0
   90.1750  100.7310  -44.0050 C   0  0  0  1  0  4  0  0  0  0  0  0
   91.4300  101.0810  -44.8020 C   0  0  0  1  0  4  0  0  0  0  0  0
   91.0627  103.5137  -44.3648 C   0  0  0  1  0  4  0  0  0  0  0  0
   89.6139  103.0929  -44.1878 C   0  0  0  1  0  4  0  0  0  0  0  0
   93.3664  102.6994  -44.8897 C   0  0  0  1  0  4  0  0  0  0  0  0
   94.4715  101.7077  -44.5516 C   0  0  0  1  0  4  0  0  0  0  0  0
   92.4510   99.9400  -44.6950 C   0  0  0  1  0  4  0  0  0  0  0  0
   91.8210   98.7070  -45.3220 C   0  0  0  1  0  4  0  0  0  0  0  0
   90.8496   96.9433  -42.6183 O   0  0  0  1  0  2  0  0  0  0  0  0
   91.1441   91.8435  -46.3322 I   0  0  0  1  0  1  0  0  0  0  0  0
   92.0408   94.4870  -40.9355 I   0  0  0  1  0  1  0  0  0  0  0  0
   90.6654   98.1803  -43.7171 H   0  0  0  1  0  1  0  0  0  0  0  0
   91.6345   97.4657  -42.7347 H   0  0  0  1  0  1  0  0  0  0  0  0
   91.8402   92.5224  -43.3465 H   0  0  0  1  0  1  0  0  0  0  0  0
   90.0976   97.2070  -46.4183 H   0  0  0  1  0  1  0  0  0  0  0  0
   88.8196   97.1614  -45.1549 H   0  0  0  1  0  1  0  0  0  0  0  0
   92.2147  102.2040  -43.2644 H   0  0  0  1  0  1  0  0  0  0  0  0
   88.6095   99.2654  -44.2068 H   0  0  0  1  0  1  0  0  0  0  0  0
   89.3242   99.8170  -45.7598 H   0  0  0  1  0  1  0  0  0  0  0  0
   90.2392   94.8172  -46.6316 H   0  0  0  1  0  1  0  0  0  0  0  0
   90.4413  100.4594  -42.9731 H   0  0  0  1  0  1  0  0  0  0  0  0
   89.4801  101.5838  -43.9926 H   0  0  0  1  0  1  0  0  0  0  0  0
   91.1614  101.2320  -45.8572 H   0  0  0  1  0  1  0  0  0  0  0  0
   91.1754  103.9679  -45.3611 H   0  0  0  1  0  1  0  0  0  0  0  0
   91.3066  104.2590  -43.5939 H   0  0  0  1  0  1  0  0  0  0  0  0
   89.4853  102.6301  -43.1979 H   0  0  0  1  0  1  0  0  0  0  0  0
   89.3431  102.3681  -44.9700 H   0  0  0  1  0  1  0  0  0  0  0  0
   88.9630  103.9768  -44.2663 H   0  0  0  1  0  1  0  0  0  0  0  0
   93.6750  103.6970  -44.5448 H   0  0  0  1  0  1  0  0  0  0  0  0
   93.2313  102.7137  -45.9814 H   0  0  0  1  0  1  0  0  0  0  0  0
   94.6270  101.6877  -43.4631 H   0  0  0  1  0  1  0  0  0  0  0  0
   95.4041  102.0146  -45.0483 H   0  0  0  1  0  1  0  0  0  0  0  0
   94.1847  100.7044  -44.8989 H   0  0  0  1  0  1  0  0  0  0  0  0
   92.6876   99.7454  -43.6396 H   0  0  0  1  0  1  0  0  0  0  0  0
   93.3718  100.2075  -45.2346 H   0  0  0  1  0  1  0  0  0  0  0  0
   91.6686   98.8910  -46.3961 H   0  0  0  1  0  1  0  0  0  0  0  0
   92.4999   97.8526  -45.1887 H   0  0  0  1  0  1  0  0  0  0  0  0
  1  6  1  0  0  0  0
  1  7  1  0  0  0  0
  1 18  1  0  0  0  0
  1 22  1  0  0  0  0
  2 12  1  0  0  0  0
  2 13  1  0  0  0  0
  2 15  1  0  0  0  0
  2 27  1  0  0  0  0
  3  5  2  0  0  0  0
  3  8  1  0  0  0  0
  3 20  1  0  0  0  0
  4  6  1  0  0  0  0
  4  8  2  0  0  0  0
  4 10  1  0  0  0  0
  5  9  1  0  0  0  0
  5 24  1  0  0  0  0
  6 25  1  0  0  0  0
  6 26  1  0  0  0  0
  7 11  1  0  0  0  0
  7 28  1  0  0  0  0
  7 29  1  0  0  0  0
  8 30  1  0  0  0  0
  9 10  2  0  0  0  0
  9 21  1  0  0  0  0
 10 19  1  0  0  0  0
 11 12  1  0  0  0  0
 11 31  1  0  0  0  0
 11 32  1  0  0  0  0
 12 17  1  0  0  0  0
 12 33  1  0  0  0  0
 13 14  1  0  0  0  0
 13 34  1  0  0  0  0
 13 35  1  0  0  0  0
 14 36  1  0  0  0  0
 14 37  1  0  0  0  0
 14 38  1  0  0  0  0
 15 16  1  0  0  0  0
 15 39  1  0  0  0  0
 15 40  1  0  0  0  0
 16 41  1  0  0  0  0
 16 42  1  0  0  0  0
 16 43  1  0  0  0  0
 17 18  1  0  0  0  0
 17 44  1  0  0  0  0
 17 45  1  0  0  0  0
 18 46  1  0  0  0  0
 18 47  1  0  0  0  0
 19 23  1  0  0  0  0
M  END
> <ConfScore>
-0.480632 

$$$$
4agm


 47 48  0  0  0  0  0  0  0  0999 V2000
   24.4330    4.1140    6.3520 N   0  3  0  1  0  4  0  0  0  0  0  0
   25.2006    0.4671    8.4879 N   0  3  0  1  0  4  0  0  0  0  0  0
   21.2649    6.7881    6.6806 C   0  0  0  1  0  3  0  0  0  0  0  0
   23.3266    6.1760    5.5453 C   0  0  0  1  0  3  0  0  0  0  0  0
   20.9757    7.7351    5.6897 C   0  0  0  1  0  3  0  0  0  0  0  0
   24.5480    5.2730    5.4500 C   0  0  0  1  0  4  0  0  0  0  0  0
   25.4840    4.1440    7.3870 C   0  0  0  1  0  4  0  0  0  0  0  0
   22.4319    6.0119    6.6103 C   0  0  0  1  0  3  0  0  0  0  0  0
   21.8869    7.8869    4.6318 C   0  0  0  1  0  3  0  0  0  0  0  0
   23.0664    7.1265    4.5231 C   0  0  0  1  0  3  0  0  0  0  0  0
   25.3250    2.9490    8.3330 C   0  0  0  1  0  4  0  0  0  0  0  0
   25.4480    1.6410    7.5540 C   0  0  0  1  0  4  0  0  0  0  0  0
   23.8209    0.5646    9.1153 C   0  0  0  1  0  4  0  0  0  0  0  0
   22.6960    0.5375    8.0949 C   0  0  0  1  0  4  0  0  0  0  0  0
   26.2708    0.3286    9.5483 C   0  0  0  1  0  4  0  0  0  0  0  0
   26.4402    1.5811   10.3978 C   0  0  0  1  0  4  0  0  0  0  0  0
   24.4130    1.6290    6.4330 C   0  0  0  1  0  4  0  0  0  0  0  0
   24.5460    2.8760    5.5510 C   0  0  0  1  0  4  0  0  0  0  0  0
   23.9278    7.2965    3.4742 O   0  0  0  1  0  2  0  0  0  0  0  0
   19.9280    6.5253    8.3007 I   0  0  0  1  0  1  0  0  0  0  0  0
   21.4674    9.3249    3.1326 I   0  0  0  1  0  1  0  0  0  0  0  0
   23.5395    4.1450    6.8183 H   0  0  0  1  0  1  0  0  0  0  0  0
   24.8179    7.1461    3.7701 H   0  0  0  1  0  1  0  0  0  0  0  0
   20.0737    8.3341    5.7381 H   0  0  0  1  0  1  0  0  0  0  0  0
   24.6463    4.9121    4.4144 H   0  0  0  1  0  1  0  0  0  0  0  0
   25.4428    5.8517    5.7237 H   0  0  0  1  0  1  0  0  0  0  0  0
   25.2233   -0.3716    7.9279 H   0  0  0  1  0  1  0  0  0  0  0  0
   25.4009    5.0774    7.9629 H   0  0  0  1  0  1  0  0  0  0  0  0
   26.4711    4.0970    6.9045 H   0  0  0  1  0  1  0  0  0  0  0  0
   22.6418    5.2818    7.3840 H   0  0  0  1  0  1  0  0  0  0  0  0
   24.3365    2.9945    8.8129 H   0  0  0  1  0  1  0  0  0  0  0  0
   26.1094    2.9884    9.1034 H   0  0  0  1  0  1  0  0  0  0  0  0
   26.4568    1.5619    7.1244 H   0  0  0  1  0  1  0  0  0  0  0  0
   23.7577    1.5074    9.6799 H   0  0  0  1  0  1  0  0  0  0  0  0
   23.6886   -0.2828    9.8036 H   0  0  0  1  0  1  0  0  0  0  0  0
   22.7487   -0.3971    7.5164 H   0  0  0  1  0  1  0  0  0  0  0  0
   22.7954    1.3965    7.4147 H   0  0  0  1  0  1  0  0  0  0  0  0
   21.7275    0.5922    8.6149 H   0  0  0  1  0  1  0  0  0  0  0  0
   27.2278    0.1111    9.0521 H   0  0  0  1  0  1  0  0  0  0  0  0
   26.0013   -0.5086   10.2092 H   0  0  0  1  0  1  0  0  0  0  0  0
   27.2163    1.4076   11.1574 H   0  0  0  1  0  1  0  0  0  0  0  0
   25.4881    1.8180   10.8955 H   0  0  0  1  0  1  0  0  0  0  0  0
   26.7376    2.4235    9.7564 H   0  0  0  1  0  1  0  0  0  0  0  0
   23.4064    1.6058    6.8733 H   0  0  0  1  0  1  0  0  0  0  0  0
   24.5637    0.7322    5.8135 H   0  0  0  1  0  1  0  0  0  0  0  0
   25.5269    2.8597    5.0527 H   0  0  0  1  0  1  0  0  0  0  0  0
   23.7493    2.8655    4.7935 H   0  0  0  1  0  1  0  0  0  0  0  0
  1  6  1  0  0  0  0
  1  7  1  0  0  0  0
  1 18  1  0  0  0  0
  1 22  1  0  0  0  0
  2 12  1  0  0  0  0
  2 13  1  0  0  0  0
  2 15  1  0  0  0  0
  2 27  1  0  0  0  0
  3  5  2  0  0  0  0
  3  8  1  0  0  0  0
  3 20  1  0  0  0  0
  4  6  1  0  0  0  0
  4  8  2  0  0  0  0
  4 10  1  0  0  0  0
  5  9  1  0  0  0  0
  5 24  1  0  0  0  0
  6 25  1  0  0  0  0
  6 26  1  0  0  0  0
  7 11  1  0  0  0  0
  7 28  1  0  0  0  0
  7 29  1  0  0  0  0
  8 30  1  0  0  0  0
  9 10  2  0  0  0  0
  9 21  1  0  0  0  0
 10 19  1  0  0  0  0
 11 12  1  0  0  0  0
 11 31  1  0  0  0  0
 11 32  1  0  0  0  0
 12 17  1  0  0  0  0
 12 33  1  0  0  0  0
 13 14  1  0  0  0  0
 13 34  1  0  0  0  0
 13 35  1  0  0  0  0
 14 36  1  0  0  0  0
 14 37  1  0  0  0  0
 14 38  1  0  0  0  0
 15 16  1  0  0  0  0
 15 39  1  0  0  0  0
 15 40  1  0  0  0  0
 16 41  1  0  0  0  0
 16 42  1  0  0  0  0
 16 43  1  0  0  0  0
 17 18  1  0  0  0  0
 17 44  1  0  0  0  0
 17 45  1  0  0  0  0
 18 46  1  0  0  0  0
 18 47  1  0  0  0  0
 19 23  1  0  0  0  0
M  END
> <ConfScore>
-0.468378 

$$$$
4agm


 47 48  0  0  0  0  0  0  0  0999 V2000
   24.4330    4.1140    6.3520 N   0  3  0  1  0  4  0  0  0  0  0  0
   25.2006    0.4671    8.4879 N   0  3  0  1  0  4  0  0  0  0  0  0
   21.2649    6.7881    6.6806 C   0  0  0  1  0  3  0  0  0  0  0  0
   23.3266    6.1760    5.5453 C   0  0  0  1  0  3  0  0  0  0  0  0
   20.9757    7.7351    5.6897 C   0  0  0  1  0  3  0  0  0  0  0  0
   24.5480    5.2730    5.4500 C   0  0  0  1  0  4  0  0  0  0  0  0
   25.4840    4.1440    7.3870 C   0  0  0  1  0  4  0  0  0  0  0  0
   22.4319    6.0119    6.6103 C   0  0  0  1  0  3  0  0  0  0  0  0
   21.8869    7.8869    4.6318 C   0  0  0  1  0  3  0  0  0  0  0  0
   23.0664    7.1265    4.5231 C   0  0  0  1  0  3  0  0  0  0  0  0
   25.3250    2.9490    8.3330 C   0  0  0  1  0  4  0  0  0  0  0  0
   25.4480    1.6410    7.5540 C   0  0  0  1  0  4  0  0  0  0  0  0
   25.3559   -0.8487    7.7455 C   0  0  0  1  0  4  0  0  0  0  0  0
   26.7475   -1.0513    7.1712 C   0  0  0  1  0  4  0  0  0  0  0  0
   23.8577    0.5446    9.1805 C   0  0  0  1  0  4  0  0  0  0  0  0
   22.6863    0.6329    8.2114 C   0  0  0  1  0  4  0  0  0  0  0  0
   24.4130    1.6290    6.4330 C   0  0  0  1  0  4  0  0  0  0  0  0
   24.5460    2.8760    5.5510 C   0  0  0  1  0  4  0  0  0  0  0  0
   23.9278    7.2965    3.4742 O   0  0  0  1  0  2  0  0  0  0  0  0
   19.9280    6.5253    8.3007 I   0  0  0  1  0  1  0  0  0  0  0  0
   21.4674    9.3249    3.1326 I   0  0  0  1  0  1  0  0  0  0  0  0
   23.5395    4.1450    6.8183 H   0  0  0  1  0  1  0  0  0  0  0  0
   24.8179    7.1461    3.7701 H   0  0  0  1  0  1  0  0  0  0  0  0
   20.0737    8.3341    5.7381 H   0  0  0  1  0  1  0  0  0  0  0  0
   24.6463    4.9121    4.4144 H   0  0  0  1  0  1  0  0  0  0  0  0
   25.4428    5.8517    5.7237 H   0  0  0  1  0  1  0  0  0  0  0  0
   25.9097    0.4994    9.2046 H   0  0  0  1  0  1  0  0  0  0  0  0
   25.4009    5.0774    7.9629 H   0  0  0  1  0  1  0  0  0  0  0  0
   26.4711    4.0970    6.9045 H   0  0  0  1  0  1  0  0  0  0  0  0
   22.6418    5.2818    7.3840 H   0  0  0  1  0  1  0  0  0  0  0  0
   24.3365    2.9945    8.8129 H   0  0  0  1  0  1  0  0  0  0  0  0
   26.1094    2.9884    9.1034 H   0  0  0  1  0  1  0  0  0  0  0  0
   26.4568    1.5619    7.1244 H   0  0  0  1  0  1  0  0  0  0  0  0
   24.6298   -0.8731    6.9186 H   0  0  0  1  0  1  0  0  0  0  0  0
   25.1428   -1.6716    8.4431 H   0  0  0  1  0  1  0  0  0  0  0  0
   27.4874   -1.0230    7.9852 H   0  0  0  1  0  1  0  0  0  0  0  0
   26.9669   -0.2522    6.4475 H   0  0  0  1  0  1  0  0  0  0  0  0
   26.7970   -2.0274    6.6651 H   0  0  0  1  0  1  0  0  0  0  0  0
   23.8473    1.4370    9.8231 H   0  0  0  1  0  1  0  0  0  0  0  0
   23.7319   -0.3556    9.8002 H   0  0  0  1  0  1  0  0  0  0  0  0
   21.7436    0.6671    8.7766 H   0  0  0  1  0  1  0  0  0  0  0  0
   22.6868   -0.2496    7.5544 H   0  0  0  1  0  1  0  0  0  0  0  0
   22.7808    1.5433    7.6017 H   0  0  0  1  0  1  0  0  0  0  0  0
   23.4064    1.6058    6.8733 H   0  0  0  1  0  1  0  0  0  0  0  0
   24.5637    0.7322    5.8135 H   0  0  0  1  0  1  0  0  0  0  0  0
   25.5269    2.8597    5.0527 H   0  0  0  1  0  1  0  0  0  0  0  0
   23.7493    2.8655    4.7935 H   0  0  0  1  0  1  0  0  0  0  0  0
  1  6  1  0  0  0  0
  1  7  1  0  0  0  0
  1 18  1  0  0  0  0
  1 22  1  0  0  0  0
  2 12  1  0  0  0  0
  2 13  1  0  0  0  0
  2 15  1  0  0  0  0
  2 27  1  0  0  0  0
  3  5  2  0  0  0  0
  3  8  1  0  0  0  0
  3 20  1  0  0  0  0
  4  6  1  0  0  0  0
  4  8  2  0  0  0  0
  4 10  1  0  0  0  0
  5  9  1  0  0  0  0
  5 24  1  0  0  0  0
  6 25  1  0  0  0  0
  6 26  1  0  0  0  0
  7 11  1  0  0  0  0
  7 28  1  0  0  0  0
  7 29  1  0  0  0  0
  8 30  1  0  0  0  0
  9 10  2  0  0  0  0
  9 21  1  0  0  0  0
 10 19  1  0  0  0  0
 11 12  1  0  0  0  0
 11 31  1  0  0  0  0
 11 32  1  0  0  0  0
 12 17  1  0  0  0  0
 12 33  1  0  0  0  0
 13 14  1  0  0  0  0
 13 34  1  0  0  0  0
 13 35  1  0  0  0  0
 14 36  1  0  0  0  0
 14 37  1  0  0  0  0
 14 38  1  0  0  0  0
 15 16  1  0  0  0  0
 15 39  1  0  0  0  0
 15 40  1  0  0  0  0
 16 41  1  0  0  0  0
 16 42  1  0  0  0  0
 16 43  1  0  0  0  0
 17 18  1  0  0  0  0
 17 44  1  0  0  0  0
 17 45  1  0  0  0  0
 18 46  1  0  0  0  0
 18 47  1  0  0  0  0
 19 23  1  0  0  0  0
M  END
> <ConfScore>
-0.46743 

$$$$
4agm


 47 48  0  0  0  0  0  0  0  0999 V2000
   90.4980   98.3810  -44.6910 N   0  3  0  1  0  4  0  0  0  0  0  0
   92.0405  102.3576  -44.2461 N   0  3  0  1  0  4  0  0  0  0  0  0
   91.2896   94.8517  -42.6564 C   0  0  0  1  0  3  0  0  0  0  0  0
   90.1996   95.9191  -44.5503 C   0  0  0  1  0  3  0  0  0  0  0  0
   90.8951   93.5881  -43.1147 C   0  0  0  1  0  3  0  0  0  0  0  0
   89.9050   97.1660  -45.3350 C   0  0  0  1  0  4  0  0  0  0  0  0
   89.5430   99.5450  -44.7170 C   0  0  0  1  0  4  0  0  0  0  0  0
   90.9459   96.0110  -43.3686 C   0  0  0  1  0  3  0  0  0  0  0  0
   90.1446   93.5174  -44.2997 C   0  0  0  1  0  3  0  0  0  0  0  0
   89.7820   94.6553  -45.0446 C   0  0  0  1  0  3  0  0  0  0  0  0
   90.1750  100.7310  -44.0050 C   0  0  0  1  0  4  0  0  0  0  0  0
   91.4300  101.0810  -44.8020 C   0  0  0  1  0  4  0  0  0  0  0  0
   91.0627  103.5137  -44.3648 C   0  0  0  1  0  4  0  0  0  0  0  0
   91.6143  104.8221  -43.8252 C   0  0  0  1  0  4  0  0  0  0  0  0
   93.3664  102.6994  -44.8897 C   0  0  0  1  0  4  0  0  0  0  0  0
   94.4437  101.6528  -44.6381 C   0  0  0  1  0  4  0  0  0  0  0  0
   92.4510   99.9400  -44.6950 C   0  0  0  1  0  4  0  0  0  0  0  0
   91.8210   98.7070  -45.3220 C   0  0  0  1  0  4  0  0  0  0  0  0
   89.0562   94.5478  -46.1990 O   0  0  0  1  0  2  0  0  0  0  0  0
   92.4158   95.0141  -40.8713 I   0  0  0  1  0  1  0  0  0  0  0  0
   89.5309   91.6127  -44.9973 I   0  0  0  1  0  1  0  0  0  0  0  0
   90.6654   98.1803  -43.7171 H   0  0  0  1  0  1  0  0  0  0  0  0
   88.1339   94.6641  -46.0031 H   0  0  0  1  0  1  0  0  0  0  0  0
   91.1616   92.6898  -42.5698 H   0  0  0  1  0  1  0  0  0  0  0  0
   90.3254   97.0579  -46.3469 H   0  0  0  1  0  1  0  0  0  0  0  0
   88.8144   97.2950  -45.4023 H   0  0  0  1  0  1  0  0  0  0  0  0
   92.2147  102.2040  -43.2644 H   0  0  0  1  0  1  0  0  0  0  0  0
   88.6095   99.2654  -44.2068 H   0  0  0  1  0  1  0  0  0  0  0  0
   89.3242   99.8170  -45.7598 H   0  0  0  1  0  1  0  0  0  0  0  0
   91.2595   96.9822  -43.0024 H   0  0  0  1  0  1  0  0  0  0  0  0
   90.4413  100.4594  -42.9731 H   0  0  0  1  0  1  0  0  0  0  0  0
   89.4801  101.5838  -43.9926 H   0  0  0  1  0  1  0  0  0  0  0  0
   91.1614  101.2320  -45.8572 H   0  0  0  1  0  1  0  0  0  0  0  0
   90.1504  103.2610  -43.8031 H   0  0  0  1  0  1  0  0  0  0  0  0
   90.8114  103.6520  -45.4264 H   0  0  0  1  0  1  0  0  0  0  0  0
   90.8653  105.6173  -43.9568 H   0  0  0  1  0  1  0  0  0  0  0  0
   92.5318  105.0877  -44.3712 H   0  0  0  1  0  1  0  0  0  0  0  0
   91.8447  104.7094  -42.7549 H   0  0  0  1  0  1  0  0  0  0  0  0
   93.7131  103.6615  -44.4853 H   0  0  0  1  0  1  0  0  0  0  0  0
   93.2143  102.7908  -45.9754 H   0  0  0  1  0  1  0  0  0  0  0  0
   95.3719  101.9514  -45.1465 H   0  0  0  1  0  1  0  0  0  0  0  0
   94.1089  100.6807  -45.0298 H   0  0  0  1  0  1  0  0  0  0  0  0
   94.6292  101.5679  -43.5575 H   0  0  0  1  0  1  0  0  0  0  0  0
   92.6876   99.7454  -43.6396 H   0  0  0  1  0  1  0  0  0  0  0  0
   93.3718  100.2075  -45.2346 H   0  0  0  1  0  1  0  0  0  0  0  0
   91.6686   98.8910  -46.3961 H   0  0  0  1  0  1  0  0  0  0  0  0
   92.4999   97.8526  -45.1887 H   0  0  0  1  0  1  0  0  0  0  0  0
  1  6  1  0  0  0  0
  1  7  1  0  0  0  0
  1 18  1  0  0  0  0
  1 22  1  0  0  0  0
  2 12  1  0  0  0  0
  2 13  1  0  0  0  0
  2 15  1  0  0  0  0
  2 27  1  0  0  0  0
  3  5  2  0  0  0  0
  3  8  1  0  0  0  0
  3 20  1  0  0  0  0
  4  6  1  0  0  0  0
  4  8  2  0  0  0  0
  4 10  1  0  0  0  0
  5  9  1  0  0  0  0
  5 24  1  0  0  0  0
  6 25  1  0  0  0  0
  6 26  1  0  0  0  0
  7 11  1  0  0  0  0
  7 28  1  0  0  0  0
  7 29  1  0  0  0  0
  8 30  1  0  0  0  0
  9 10  2  0  0  0  0
  9 21  1  0  0  0  0
 10 19  1  0  0  0  0
 11 12  1  0  0  0  0
 11 31  1  0  0  0  0
 11 32  1  0  0  0  0
 12 17  1  0  0  0  0
 12 33  1  0  0  0  0
 13 14  1  0  0  0  0
 13 34  1  0  0  0  0
 13 35  1  0  0  0  0
 14 36  1  0  0  0  0
 14 37  1  0  0  0  0
 14 38  1  0  0  0  0
 15 16  1  0  0  0  0
 15 39  1  0  0  0  0
 15 40  1  0  0  0  0
 16 41  1  0  0  0  0
 16 42  1  0  0  0  0
 16 43  1  0  0  0  0
 17 18  1  0  0  0  0
 17 44  1  0  0  0  0
 17 45  1  0  0  0  0
 18 46  1  0  0  0  0
 18 47  1  0  0  0  0
 19 23  1  0  0  0  0
M  END
> <ConfScore>
-0.459842 

$$$$
4agm


 47 48  0  0  0  0  0  0  0  0999 V2000
   90.4980   98.3810  -44.6910 N   0  3  0  1  0  4  0  0  0  0  0  0
   92.0405  102.3576  -44.2461 N   0  3  0  1  0  4  0  0  0  0  0  0
   91.9531   97.4506  -48.5244 C   0  0  0  1  0  3  0  0  0  0  0  0
   90.6396   96.7850  -46.5890 C   0  0  0  1  0  3  0  0  0  0  0  0
   91.9190   96.1422  -49.0238 C   0  0  0  1  0  3  0  0  0  0  0  0
   89.9050   97.1660  -45.3350 C   0  0  0  1  0  4  0  0  0  0  0  0
   89.5430   99.5450  -44.7170 C   0  0  0  1  0  4  0  0  0  0  0  0
   91.3174   97.7722  -47.3154 C   0  0  0  1  0  3  0  0  0  0  0  0
   91.2371   95.1661  -48.2791 C   0  0  0  1  0  3  0  0  0  0  0  0
   90.5846   95.4481  -47.0642 C   0  0  0  1  0  3  0  0  0  0  0  0
   90.1750  100.7310  -44.0050 C   0  0  0  1  0  4  0  0  0  0  0  0
   91.4300  101.0810  -44.8020 C   0  0  0  1  0  4  0  0  0  0  0  0
   92.4367  102.1715  -42.7917 C   0  0  0  1  0  4  0  0  0  0  0  0
   93.4762  101.0826  -42.5891 C   0  0  0  1  0  4  0  0  0  0  0  0
   91.1358  103.5587  -44.4131 C   0  0  0  1  0  4  0  0  0  0  0  0
   89.7661  103.3724  -43.7741 C   0  0  0  1  0  4  0  0  0  0  0  0
   92.4510   99.9400  -44.6950 C   0  0  0  1  0  4  0  0  0  0  0  0
   91.8210   98.7070  -45.3220 C   0  0  0  1  0  4  0  0  0  0  0  0
   89.9237   94.4730  -46.3690 O   0  0  0  1  0  2  0  0  0  0  0  0
   92.9739   98.9579  -49.6046 I   0  0  0  1  0  1  0  0  0  0  0  0
   91.1885   93.1801  -49.0173 I   0  0  0  1  0  1  0  0  0  0  0  0
   90.6654   98.1803  -43.7171 H   0  0  0  1  0  1  0  0  0  0  0  0
   89.9973   94.6453  -45.4377 H   0  0  0  1  0  1  0  0  0  0  0  0
   92.4054   95.8902  -49.9591 H   0  0  0  1  0  1  0  0  0  0  0  0
   88.8535   97.3736  -45.5871 H   0  0  0  1  0  1  0  0  0  0  0  0
   89.9536   96.3270  -44.6249 H   0  0  0  1  0  1  0  0  0  0  0  0
   92.8821  102.5410  -44.7712 H   0  0  0  1  0  1  0  0  0  0  0  0
   88.6095   99.2654  -44.2068 H   0  0  0  1  0  1  0  0  0  0  0  0
   89.3242   99.8170  -45.7598 H   0  0  0  1  0  1  0  0  0  0  0  0
   91.3511   98.7896  -46.9420 H   0  0  0  1  0  1  0  0  0  0  0  0
   90.4413  100.4594  -42.9731 H   0  0  0  1  0  1  0  0  0  0  0  0
   89.4801  101.5838  -43.9926 H   0  0  0  1  0  1  0  0  0  0  0  0
   91.1614  101.2320  -45.8572 H   0  0  0  1  0  1  0  0  0  0  0  0
   91.5376  101.9081  -42.2139 H   0  0  0  1  0  1  0  0  0  0  0  0
   92.8470  103.1203  -42.4165 H   0  0  0  1  0  1  0  0  0  0  0  0
   94.3805  101.3275  -43.1662 H   0  0  0  1  0  1  0  0  0  0  0  0
   93.0713  100.1189  -42.9322 H   0  0  0  1  0  1  0  0  0  0  0  0
   93.7313  101.0132  -41.5207 H   0  0  0  1  0  1  0  0  0  0  0  0
   90.9973  103.7446  -45.4881 H   0  0  0  1  0  1  0  0  0  0  0  0
   91.6225  104.4296  -43.9495 H   0  0  0  1  0  1  0  0  0  0  0  0
   89.1680  104.2844  -43.9146 H   0  0  0  1  0  1  0  0  0  0  0  0
   89.8871  103.1768  -42.6982 H   0  0  0  1  0  1  0  0  0  0  0  0
   89.2527  102.5216  -44.2454 H   0  0  0  1  0  1  0  0  0  0  0  0
   92.6876   99.7454  -43.6396 H   0  0  0  1  0  1  0  0  0  0  0  0
   93.3718  100.2075  -45.2346 H   0  0  0  1  0  1  0  0  0  0  0  0
   91.6686   98.8910  -46.3961 H   0  0  0  1  0  1  0  0  0  0  0  0
   92.4999   97.8526  -45.1887 H   0  0  0  1  0  1  0  0  0  0  0  0
  1  6  1  0  0  0  0
  1  7  1  0  0  0  0
  1 18  1  0  0  0  0
  1 22  1  0  0  0  0
  2 12  1  0  0  0  0
  2 13  1  0  0  0  0
  2 15  1  0  0  0  0
  2 27  1  0  0  0  0
  3  5  2  0  0  0  0
  3  8  1  0  0  0  0
  3 20  1  0  0  0  0
  4  6  1  0  0  0  0
  4  8  2  0  0  0  0
  4 10  1  0  0  0  0
  5  9  1  0  0  0  0
  5 24  1  0  0  0  0
  6 25  1  0  0  0  0
  6 26  1  0  0  0  0
  7 11  1  0  0  0  0
  7 28  1  0  0  0  0
  7 29  1  0  0  0  0
  8 30  1  0  0  0  0
  9 10  2  0  0  0  0
  9 21  1  0  0  0  0
 10 19  1  0  0  0  0
 11 12  1  0  0  0  0
 11 31  1  0  0  0  0
 11 32  1  0  0  0  0
 12 17  1  0  0  0  0
 12 33  1  0  0  0  0
 13 14  1  0  0  0  0
 13 34  1  0  0  0  0
 13 35  1  0  0  0  0
 14 36  1  0  0  0  0
 14 37  1  0  0  0  0
 14 38  1  0  0  0  0
 15 16  1  0  0  0  0
 15 39  1  0  0  0  0
 15 40  1  0  0  0  0
 16 41  1  0  0  0  0
 16 42  1  0  0  0  0
 16 43  1  0  0  0  0
 17 18  1  0  0  0  0
 17 44  1  0  0  0  0
 17 45  1  0  0  0  0
 18 46  1  0  0  0  0
 18 47  1  0  0  0  0
 19 23  1  0  0  0  0
M  END
> <ConfScore>
-0.444919 

$$$$
4agm


 47 48  0  0  0  0  0  0  0  0999 V2000
   90.4980   98.3810  -44.6910 N   0  3  0  1  0  4  0  0  0  0  0  0
   92.0405  102.3576  -44.2461 N   0  3  0  1  0  4  0  0  0  0  0  0
   91.3627   94.6790  -42.8575 C   0  0  0  1  0  3  0  0  0  0  0  0
   90.0567   95.9466  -44.4705 C   0  0  0  1  0  3  0  0  0  0  0  0
   90.4561   93.6135  -42.9293 C   0  0  0  1  0  3  0  0  0  0  0  0
   89.9050   97.1660  -45.3350 C   0  0  0  1  0  4  0  0  0  0  0  0
   89.5430   99.5450  -44.7170 C   0  0  0  1  0  4  0  0  0  0  0  0
   91.1666   95.8386  -43.6230 C   0  0  0  1  0  3  0  0  0  0  0  0
   89.3479   93.7424  -43.7824 C   0  0  0  1  0  3  0  0  0  0  0  0
   89.1168   94.8869  -44.5685 C   0  0  0  1  0  3  0  0  0  0  0  0
   90.1750  100.7310  -44.0050 C   0  0  0  1  0  4  0  0  0  0  0  0
   91.4300  101.0810  -44.8020 C   0  0  0  1  0  4  0  0  0  0  0  0
   91.0627  103.5137  -44.3648 C   0  0  0  1  0  4  0  0  0  0  0  0
   90.7447  103.8834  -45.8034 C   0  0  0  1  0  4  0  0  0  0  0  0
   93.3664  102.6994  -44.8897 C   0  0  0  1  0  4  0  0  0  0  0  0
   94.4437  101.6528  -44.6381 C   0  0  0  1  0  4  0  0  0  0  0  0
   92.4510   99.9400  -44.6950 C   0  0  0  1  0  4  0  0  0  0  0  0
   91.8210   98.7070  -45.3220 C   0  0  0  1  0  4  0  0  0  0  0  0
   88.0298   94.9747  -45.3941 O   0  0  0  1  0  2  0  0  0  0  0  0
   93.0457   94.5383  -41.5813 I   0  0  0  1  0  1  0  0  0  0  0  0
   87.9621   92.1427  -43.8909 I   0  0  0  1  0  1  0  0  0  0  0  0
   90.6654   98.1803  -43.7171 H   0  0  0  1  0  1  0  0  0  0  0  0
   88.1779   95.6569  -46.0385 H   0  0  0  1  0  1  0  0  0  0  0  0
   90.6057   92.7144  -42.3427 H   0  0  0  1  0  1  0  0  0  0  0  0
   90.4135   96.9876  -46.2952 H   0  0  0  1  0  1  0  0  0  0  0  0
   88.8342   97.3446  -45.5140 H   0  0  0  1  0  1  0  0  0  0  0  0
   92.2147  102.2040  -43.2644 H   0  0  0  1  0  1  0  0  0  0  0  0
   88.6095   99.2654  -44.2068 H   0  0  0  1  0  1  0  0  0  0  0  0
   89.3242   99.8170  -45.7598 H   0  0  0  1  0  1  0  0  0  0  0  0
   91.8776   96.6548  -43.5581 H   0  0  0  1  0  1  0  0  0  0  0  0
   90.4413  100.4594  -42.9731 H   0  0  0  1  0  1  0  0  0  0  0  0
   89.4801  101.5838  -43.9926 H   0  0  0  1  0  1  0  0  0  0  0  0
   91.1614  101.2320  -45.8572 H   0  0  0  1  0  1  0  0  0  0  0  0
   91.4970  104.3935  -43.8658 H   0  0  0  1  0  1  0  0  0  0  0  0
   90.1263  103.2332  -43.8611 H   0  0  0  1  0  1  0  0  0  0  0  0
   91.6685  104.1933  -46.3147 H   0  0  0  1  0  1  0  0  0  0  0  0
   90.0207  104.7117  -45.8191 H   0  0  0  1  0  1  0  0  0  0  0  0
   90.3152  103.0116  -46.3199 H   0  0  0  1  0  1  0  0  0  0  0  0
   93.7131  103.6615  -44.4853 H   0  0  0  1  0  1  0  0  0  0  0  0
   93.2143  102.7908  -45.9754 H   0  0  0  1  0  1  0  0  0  0  0  0
   95.3719  101.9514  -45.1465 H   0  0  0  1  0  1  0  0  0  0  0  0
   94.1089  100.6807  -45.0298 H   0  0  0  1  0  1  0  0  0  0  0  0
   94.6292  101.5679  -43.5575 H   0  0  0  1  0  1  0  0  0  0  0  0
   92.6876   99.7454  -43.6396 H   0  0  0  1  0  1  0  0  0  0  0  0
   93.3718  100.2075  -45.2346 H   0  0  0  1  0  1  0  0  0  0  0  0
   91.6686   98.8910  -46.3961 H   0  0  0  1  0  1  0  0  0  0  0  0
   92.4999   97.8526  -45.1887 H   0  0  0  1  0  1  0  0  0  0  0  0
  1  6  1  0  0  0  0
  1  7  1  0  0  0  0
  1 18  1  0  0  0  0
  1 22  1  0  0  0  0
  2 12  1  0  0  0  0
  2 13  1  0  0  0  0
  2 15  1  0  0  0  0
  2 27  1  0  0  0  0
  3  5  2  0  0  0  0
  3  8  1  0  0  0  0
  3 20  1  0  0  0  0
  4  6  1  0  0  0  0
  4  8  2  0  0  0  0
  4 10  1  0  0  0  0
  5  9  1  0  0  0  0
  5 24  1  0  0  0  0
  6 25  1  0  0  0  0
  6 26  1  0  0  0  0
  7 11  1  0  0  0  0
  7 28  1  0  0  0  0
  7 29  1  0  0  0  0
  8 30  1  0  0  0  0
  9 10  2  0  0  0  0
  9 21  1  0  0  0  0
 10 19  1  0  0  0  0
 11 12  1  0  0  0  0
 11 31  1  0  0  0  0
 11 32  1  0  0  0  0
 12 17  1  0  0  0  0
 12 33  1  0  0  0  0
 13 14  1  0  0  0  0
 13 34  1  0  0  0  0
 13 35  1  0  0  0  0
 14 36  1  0  0  0  0
 14 37  1  0  0  0  0
 14 38  1  0  0  0  0
 15 16  1  0  0  0  0
 15 39  1  0  0  0  0
 15 40  1  0  0  0  0
 16 41  1  0  0  0  0
 16 42  1  0  0  0  0
 16 43  1  0  0  0  0
 17 18  1  0  0  0  0
 17 44  1  0  0  0  0
 17 45  1  0  0  0  0
 18 46  1  0  0  0  0
 18 47  1  0  0  0  0
 19 23  1  0  0  0  0
M  END
> <ConfScore>
-0.420104 

$$$$
4agm


 47 48  0  0  0  0  0  0  0  0999 V2000
   90.4980   98.3810  -44.6910 N   0  3  0  1  0  4  0  0  0  0  0  0
   92.0405  102.3576  -44.2461 N   0  3  0  1  0  4  0  0  0  0  0  0
   92.7570   96.1290  -47.6238 C   0  0  0  1  0  3  0  0  0  0  0  0
   90.6592   96.7660  -46.5713 C   0  0  0  1  0  3  0  0  0  0  0  0
   92.1513   96.1414  -48.8869 C   0  0  0  1  0  3  0  0  0  0  0  0
   89.9050   97.1660  -45.3350 C   0  0  0  1  0  4  0  0  0  0  0  0
   89.5430   99.5450  -44.7170 C   0  0  0  1  0  4  0  0  0  0  0  0
   92.0178   96.4399  -46.4723 C   0  0  0  1  0  3  0  0  0  0  0  0
   90.7875   96.4677  -48.9648 C   0  0  0  1  0  3  0  0  0  0  0  0
   90.0118   96.7882  -47.8348 C   0  0  0  1  0  3  0  0  0  0  0  0
   90.1750  100.7310  -44.0050 C   0  0  0  1  0  4  0  0  0  0  0  0
   91.4300  101.0810  -44.8020 C   0  0  0  1  0  4  0  0  0  0  0  0
   93.0655  102.0365  -43.1723 C   0  0  0  1  0  4  0  0  0  0  0  0
   94.1748  101.1197  -43.6586 C   0  0  0  1  0  4  0  0  0  0  0  0
   90.9993  103.3267  -43.7306 C   0  0  0  1  0  4  0  0  0  0  0  0
   89.9813  103.7329  -44.7878 C   0  0  0  1  0  4  0  0  0  0  0  0
   92.4510   99.9400  -44.6950 C   0  0  0  1  0  4  0  0  0  0  0  0
   91.8210   98.7070  -45.3220 C   0  0  0  1  0  4  0  0  0  0  0  0
   88.6870   97.1084  -47.9494 O   0  0  0  1  0  2  0  0  0  0  0  0
   94.8084   95.6363  -47.4506 I   0  0  0  1  0  1  0  0  0  0  0  0
   89.8560   96.4780  -50.8683 I   0  0  0  1  0  1  0  0  0  0  0  0
   90.6654   98.1803  -43.7171 H   0  0  0  1  0  1  0  0  0  0  0  0
   88.1809   96.5751  -47.3477 H   0  0  0  1  0  1  0  0  0  0  0  0
   92.7194   95.9056  -49.7794 H   0  0  0  1  0  1  0  0  0  0  0  0
   88.8606   97.3817  -45.6089 H   0  0  0  1  0  1  0  0  0  0  0  0
   89.9318   96.3332  -44.6165 H   0  0  0  1  0  1  0  0  0  0  0  0
   92.5248  102.8135  -45.0045 H   0  0  0  1  0  1  0  0  0  0  0  0
   88.6095   99.2654  -44.2068 H   0  0  0  1  0  1  0  0  0  0  0  0
   89.3242   99.8170  -45.7598 H   0  0  0  1  0  1  0  0  0  0  0  0
   92.5005   96.4276  -45.5014 H   0  0  0  1  0  1  0  0  0  0  0  0
   90.4413  100.4594  -42.9731 H   0  0  0  1  0  1  0  0  0  0  0  0
   89.4801  101.5838  -43.9926 H   0  0  0  1  0  1  0  0  0  0  0  0
   91.1614  101.2320  -45.8572 H   0  0  0  1  0  1  0  0  0  0  0  0
   92.5513  101.5470  -42.3312 H   0  0  0  1  0  1  0  0  0  0  0  0
   93.5168  102.9778  -42.8265 H   0  0  0  1  0  1  0  0  0  0  0  0
   94.8884  100.9421  -42.8400 H   0  0  0  1  0  1  0  0  0  0  0  0
   94.6966  101.5904  -44.5051 H   0  0  0  1  0  1  0  0  0  0  0  0
   93.7426  100.1606  -43.9822 H   0  0  0  1  0  1  0  0  0  0  0  0
   91.5115  104.2318  -43.3730 H   0  0  0  1  0  1  0  0  0  0  0  0
   90.4647  102.8526  -42.8941 H   0  0  0  1  0  1  0  0  0  0  0  0
   89.2457  104.4199  -44.3448 H   0  0  0  1  0  1  0  0  0  0  0  0
   89.4648  102.8367  -45.1628 H   0  0  0  1  0  1  0  0  0  0  0  0
   90.4955  104.2344  -45.6205 H   0  0  0  1  0  1  0  0  0  0  0  0
   92.6876   99.7454  -43.6396 H   0  0  0  1  0  1  0  0  0  0  0  0
   93.3718  100.2075  -45.2346 H   0  0  0  1  0  1  0  0  0  0  0  0
   91.6686   98.8910  -46.3961 H   0  0  0  1  0  1  0  0  0  0  0  0
   92.4999   97.8526  -45.1887 H   0  0  0  1  0  1  0  0  0  0  0  0
  1  6  1  0  0  0  0
  1  7  1  0  0  0  0
  1 18  1  0  0  0  0
  1 22  1  0  0  0  0
  2 12  1  0  0  0  0
  2 13  1  0  0  0  0
  2 15  1  0  0  0  0
  2 27  1  0  0  0  0
  3  5  2  0  0  0  0
  3  8  1  0  0  0  0
  3 20  1  0  0  0  0
  4  6  1  0  0  0  0
  4  8  2  0  0  0  0
  4 10  1  0  0  0  0
  5  9  1  0  0  0  0
  5 24  1  0  0  0  0
  6 25  1  0  0  0  0
  6 26  1  0  0  0  0
  7 11  1  0  0  0  0
  7 28  1  0  0  0  0
  7 29  1  0  0  0  0
  8 30  1  0  0  0  0
  9 10  2  0  0  0  0
  9 21  1  0  0  0  0
 10 19  1  0  0  0  0
 11 12  1  0  0  0  0
 11 31  1  0  0  0  0
 11 32  1  0  0  0  0
 12 17  1  0  0  0  0
 12 33  1  0  0  0  0
 13 14  1  0  0  0  0
 13 34  1  0  0  0  0
 13 35  1  0  0  0  0
 14 36  1  0  0  0  0
 14 37  1  0  0  0  0
 14 38  1  0  0  0  0
 15 16  1  0  0  0  0
 15 39  1  0  0  0  0
 15 40  1  0  0  0  0
 16 41  1  0  0  0  0
 16 42  1  0  0  0  0
 16 43  1  0  0  0  0
 17 18  1  0  0  0  0
 17 44  1  0  0  0  0
 17 45  1  0  0  0  0
 18 46  1  0  0  0  0
 18 47  1  0  0  0  0
 19 23  1  0  0  0  0
M  END
> <ConfScore>
-0.410126 

$$$$
4agm


 47 48  0  0  0  0  0  0  0  0999 V2000
   90.4980   98.3810  -44.6910 N   0  3  0  1  0  4  0  0  0  0  0  0
   92.0405  102.3576  -44.2461 N   0  3  0  1  0  4  0  0  0  0  0  0
   92.0569   95.1513  -47.7346 C   0  0  0  1  0  3  0  0  0  0  0  0
   90.6592   96.7660  -46.5713 C   0  0  0  1  0  3  0  0  0  0  0  0
   92.2024   96.0266  -48.8186 C   0  0  0  1  0  3  0  0  0  0  0  0
   89.9050   97.1660  -45.3350 C   0  0  0  1  0  4  0  0  0  0  0  0
   89.5430   99.5450  -44.7170 C   0  0  0  1  0  4  0  0  0  0  0  0
   91.2914   95.5170  -46.6168 C   0  0  0  1  0  3  0  0  0  0  0  0
   91.5581   97.2730  -48.7552 C   0  0  0  1  0  3  0  0  0  0  0  0
   90.7842   97.6788  -47.6517 C   0  0  0  1  0  3  0  0  0  0  0  0
   90.1750  100.7310  -44.0050 C   0  0  0  1  0  4  0  0  0  0  0  0
   91.4300  101.0810  -44.8020 C   0  0  0  1  0  4  0  0  0  0  0  0
   93.0655  102.0365  -43.1723 C   0  0  0  1  0  4  0  0  0  0  0  0
   94.1748  101.1197  -43.6586 C   0  0  0  1  0  4  0  0  0  0  0  0
   90.9993  103.3267  -43.7306 C   0  0  0  1  0  4  0  0  0  0  0  0
   89.9813  103.7329  -44.7878 C   0  0  0  1  0  4  0  0  0  0  0  0
   92.4510   99.9400  -44.6950 C   0  0  0  1  0  4  0  0  0  0  0  0
   91.8210   98.7070  -45.3220 C   0  0  0  1  0  4  0  0  0  0  0  0
   90.1766   98.9039  -47.6215 O   0  0  0  1  0  2  0  0  0  0  0  0
   93.0014   93.2574  -47.7834 I   0  0  0  1  0  1  0  0  0  0  0  0
   91.7601   98.6017  -50.3938 I   0  0  0  1  0  1  0  0  0  0  0  0
   90.6654   98.1803  -43.7171 H   0  0  0  1  0  1  0  0  0  0  0  0
   89.2571   98.7943  -47.4091 H   0  0  0  1  0  1  0  0  0  0  0  0
   92.7959   95.7497  -49.6823 H   0  0  0  1  0  1  0  0  0  0  0  0
   88.8606   97.3817  -45.6089 H   0  0  0  1  0  1  0  0  0  0  0  0
   89.9318   96.3332  -44.6165 H   0  0  0  1  0  1  0  0  0  0  0  0
   92.5248  102.8135  -45.0045 H   0  0  0  1  0  1  0  0  0  0  0  0
   88.6095   99.2654  -44.2068 H   0  0  0  1  0  1  0  0  0  0  0  0
   89.3242   99.8170  -45.7598 H   0  0  0  1  0  1  0  0  0  0  0  0
   91.1889   94.8295  -45.7846 H   0  0  0  1  0  1  0  0  0  0  0  0
   90.4413  100.4594  -42.9731 H   0  0  0  1  0  1  0  0  0  0  0  0
   89.4801  101.5838  -43.9926 H   0  0  0  1  0  1  0  0  0  0  0  0
   91.1614  101.2320  -45.8572 H   0  0  0  1  0  1  0  0  0  0  0  0
   92.5513  101.5470  -42.3312 H   0  0  0  1  0  1  0  0  0  0  0  0
   93.5168  102.9778  -42.8265 H   0  0  0  1  0  1  0  0  0  0  0  0
   94.8884  100.9421  -42.8400 H   0  0  0  1  0  1  0  0  0  0  0  0
   94.6966  101.5904  -44.5051 H   0  0  0  1  0  1  0  0  0  0  0  0
   93.7426  100.1606  -43.9822 H   0  0  0  1  0  1  0  0  0  0  0  0
   91.5115  104.2318  -43.3730 H   0  0  0  1  0  1  0  0  0  0  0  0
   90.4647  102.8526  -42.8941 H   0  0  0  1  0  1  0  0  0  0  0  0
   89.2457  104.4199  -44.3448 H   0  0  0  1  0  1  0  0  0  0  0  0
   89.4648  102.8367  -45.1628 H   0  0  0  1  0  1  0  0  0  0  0  0
   90.4955  104.2344  -45.6205 H   0  0  0  1  0  1  0  0  0  0  0  0
   92.6876   99.7454  -43.6396 H   0  0  0  1  0  1  0  0  0  0  0  0
   93.3718  100.2075  -45.2346 H   0  0  0  1  0  1  0  0  0  0  0  0
   91.6686   98.8910  -46.3961 H   0  0  0  1  0  1  0  0  0  0  0  0
   92.4999   97.8526  -45.1887 H   0  0  0  1  0  1  0  0  0  0  0  0
  1  6  1  0  0  0  0
  1  7  1  0  0  0  0
  1 18  1  0  0  0  0
  1 22  1  0  0  0  0
  2 12  1  0  0  0  0
  2 13  1  0  0  0  0
  2 15  1  0  0  0  0
  2 27  1  0  0  0  0
  3  5  2  0  0  0  0
  3  8  1  0  0  0  0
  3 20  1  0  0  0  0
  4  6  1  0  0  0  0
  4  8  2  0  0  0  0
  4 10  1  0  0  0  0
  5  9  1  0  0  0  0
  5 24  1  0  0  0  0
  6 25  1  0  0  0  0
  6 26  1  0  0  0  0
  7 11  1  0  0  0  0
  7 28  1  0  0  0  0
  7 29  1  0  0  0  0
  8 30  1  0  0  0  0
  9 10  2  0  0  0  0
  9 21  1  0  0  0  0
 10 19  1  0  0  0  0
 11 12  1  0  0  0  0
 11 31  1  0  0  0  0
 11 32  1  0  0  0  0
 12 17  1  0  0  0  0
 12 33  1  0  0  0  0
 13 14  1  0  0  0  0
 13 34  1  0  0  0  0
 13 35  1  0  0  0  0
 14 36  1  0  0  0  0
 14 37  1  0  0  0  0
 14 38  1  0  0  0  0
 15 16  1  0  0  0  0
 15 39  1  0  0  0  0
 15 40  1  0  0  0  0
 16 41  1  0  0  0  0
 16 42  1  0  0  0  0
 16 43  1  0  0  0  0
 17 18  1  0  0  0  0
 17 44  1  0  0  0  0
 17 45  1  0  0  0  0
 18 46  1  0  0  0  0
 18 47  1  0  0  0  0
 19 23  1  0  0  0  0
M  END
> <ConfScore>
-0.409509 

$$$$
4agm


 47 48  0  0  0  0  0  0  0  0999 V2000
   90.4980   98.3810  -44.6910 N   0  3  0  1  0  4  0  0  0  0  0  0
   92.0405  102.3576  -44.2461 N   0  3  0  1  0  4  0  0  0  0  0  0
   91.6447   94.7420  -42.9800 C   0  0  0  1  0  3  0  0  0  0  0  0
   90.4948   95.8988  -44.7838 C   0  0  0  1  0  3  0  0  0  0  0  0
   91.7368   93.5795  -43.7561 C   0  0  0  1  0  3  0  0  0  0  0  0
   89.9050   97.1660  -45.3350 C   0  0  0  1  0  4  0  0  0  0  0  0
   89.5430   99.5450  -44.7170 C   0  0  0  1  0  4  0  0  0  0  0  0
   91.0289   95.8957  -43.4890 C   0  0  0  1  0  3  0  0  0  0  0  0
   91.1924   93.6018  -45.0506 C   0  0  0  1  0  3  0  0  0  0  0  0
   90.5695   94.7387  -45.5990 C   0  0  0  1  0  3  0  0  0  0  0  0
   90.1750  100.7310  -44.0050 C   0  0  0  1  0  4  0  0  0  0  0  0
   91.4300  101.0810  -44.8020 C   0  0  0  1  0  4  0  0  0  0  0  0
   90.9912  103.4506  -44.1416 C   0  0  0  1  0  4  0  0  0  0  0  0
   89.6099  102.9232  -43.7937 C   0  0  0  1  0  4  0  0  0  0  0  0
   93.2374  102.8280  -45.0432 C   0  0  0  1  0  4  0  0  0  0  0  0
   94.4348  101.8931  -44.9370 C   0  0  0  1  0  4  0  0  0  0  0  0
   92.4510   99.9400  -44.6950 C   0  0  0  1  0  4  0  0  0  0  0  0
   91.8210   98.7070  -45.3220 C   0  0  0  1  0  4  0  0  0  0  0  0
   90.0566   94.7263  -46.8669 O   0  0  0  1  0  2  0  0  0  0  0  0
   92.4427   94.7587  -41.0194 I   0  0  0  1  0  1  0  0  0  0  0  0
   91.3142   91.8457  -46.2306 I   0  0  0  1  0  1  0  0  0  0  0  0
   90.6654   98.1803  -43.7171 H   0  0  0  1  0  1  0  0  0  0  0  0
   89.1302   94.5188  -46.8299 H   0  0  0  1  0  1  0  0  0  0  0  0
   92.2150   92.6874  -43.3684 H   0  0  0  1  0  1  0  0  0  0  0  0
   90.0976   97.2070  -46.4183 H   0  0  0  1  0  1  0  0  0  0  0  0
   88.8196   97.1614  -45.1549 H   0  0  0  1  0  1  0  0  0  0  0  0
   92.3637  102.1537  -43.3125 H   0  0  0  1  0  1  0  0  0  0  0  0
   88.6095   99.2654  -44.2068 H   0  0  0  1  0  1  0  0  0  0  0  0
   89.3242   99.8170  -45.7598 H   0  0  0  1  0  1  0  0  0  0  0  0
   90.9662   96.7886  -42.8771 H   0  0  0  1  0  1  0  0  0  0  0  0
   90.4413  100.4594  -42.9731 H   0  0  0  1  0  1  0  0  0  0  0  0
   89.4801  101.5838  -43.9926 H   0  0  0  1  0  1  0  0  0  0  0  0
   91.1614  101.2320  -45.8572 H   0  0  0  1  0  1  0  0  0  0  0  0
   90.9321  103.9741  -45.1082 H   0  0  0  1  0  1  0  0  0  0  0  0
   91.3012  104.1599  -43.3605 H   0  0  0  1  0  1  0  0  0  0  0  0
   89.6528  102.3905  -42.8318 H   0  0  0  1  0  1  0  0  0  0  0  0
   89.2705  102.2333  -44.5807 H   0  0  0  1  0  1  0  0  0  0  0  0
   88.9049  103.7646  -43.7152 H   0  0  0  1  0  1  0  0  0  0  0  0
   93.5350  103.8200  -44.6735 H   0  0  0  1  0  1  0  0  0  0  0  0
   92.9448  102.9028  -46.1011 H   0  0  0  1  0  1  0  0  0  0  0  0
   94.7472  101.8142  -43.8856 H   0  0  0  1  0  1  0  0  0  0  0  0
   95.2663  102.2929  -45.5363 H   0  0  0  1  0  1  0  0  0  0  0  0
   94.1586  100.8971  -45.3126 H   0  0  0  1  0  1  0  0  0  0  0  0
   92.6876   99.7454  -43.6396 H   0  0  0  1  0  1  0  0  0  0  0  0
   93.3718  100.2075  -45.2346 H   0  0  0  1  0  1  0  0  0  0  0  0
   91.6686   98.8910  -46.3961 H   0  0  0  1  0  1  0  0  0  0  0  0
   92.4999   97.8526  -45.1887 H   0  0  0  1  0  1  0  0  0  0  0  0
  1  6  1  0  0  0  0
  1  7  1  0  0  0  0
  1 18  1  0  0  0  0
  1 22  1  0  0  0  0
  2 12  1  0  0  0  0
  2 13  1  0  0  0  0
  2 15  1  0  0  0  0
  2 27  1  0  0  0  0
  3  5  2  0  0  0  0
  3  8  1  0  0  0  0
  3 20  1  0  0  0  0
  4  6  1  0  0  0  0
  4  8  2  0  0  0  0
  4 10  1  0  0  0  0
  5  9  1  0  0  0  0
  5 24  1  0  0  0  0
  6 25  1  0  0  0  0
  6 26  1  0  0  0  0
  7 11  1  0  0  0  0
  7 28  1  0  0  0  0
  7 29  1  0  0  0  0
  8 30  1  0  0  0  0
  9 10  2  0  0  0  0
  9 21  1  0  0  0  0
 10 19  1  0  0  0  0
 11 12  1  0  0  0  0
 11 31  1  0  0  0  0
 11 32  1  0  0  0  0
 12 17  1  0  0  0  0
 12 33  1  0  0  0  0
 13 14  1  0  0  0  0
 13 34  1  0  0  0  0
 13 35  1  0  0  0  0
 14 36  1  0  0  0  0
 14 37  1  0  0  0  0
 14 38  1  0  0  0  0
 15 16  1  0  0  0  0
 15 39  1  0  0  0  0
 15 40  1  0  0  0  0
 16 41  1  0  0  0  0
 16 42  1  0  0  0  0
 16 43  1  0  0  0  0
 17 18  1  0  0  0  0
 17 44  1  0  0  0  0
 17 45  1  0  0  0  0
 18 46  1  0  0  0  0
 18 47  1  0  0  0  0
 19 23  1  0  0  0  0
M  END
> <ConfScore>
-0.382802 

$$$$
4agm


 47 48  0  0  0  0  0  0  0  0999 V2000
   90.4980   98.3810  -44.6910 N   0  3  0  1  0  4  0  0  0  0  0  0
   92.0405  102.3576  -44.2461 N   0  3  0  1  0  4  0  0  0  0  0  0
   91.6447   94.7420  -42.9800 C   0  0  0  1  0  3  0  0  0  0  0  0
   90.4948   95.8988  -44.7838 C   0  0  0  1  0  3  0  0  0  0  0  0
   91.7368   93.5795  -43.7561 C   0  0  0  1  0  3  0  0  0  0  0  0
   89.9050   97.1660  -45.3350 C   0  0  0  1  0  4  0  0  0  0  0  0
   89.5430   99.5450  -44.7170 C   0  0  0  1  0  4  0  0  0  0  0  0
   91.0289   95.8957  -43.4890 C   0  0  0  1  0  3  0  0  0  0  0  0
   91.1924   93.6018  -45.0506 C   0  0  0  1  0  3  0  0  0  0  0  0
   90.5695   94.7387  -45.5990 C   0  0  0  1  0  3  0  0  0  0  0  0
   90.1750  100.7310  -44.0050 C   0  0  0  1  0  4  0  0  0  0  0  0
   91.4300  101.0810  -44.8020 C   0  0  0  1  0  4  0  0  0  0  0  0
   90.9912  103.4506  -44.1416 C   0  0  0  1  0  4  0  0  0  0  0  0
   89.6099  102.9232  -43.7937 C   0  0  0  1  0  4  0  0  0  0  0  0
   93.2374  102.8280  -45.0432 C   0  0  0  1  0  4  0  0  0  0  0  0
   94.4348  101.8931  -44.9370 C   0  0  0  1  0  4  0  0  0  0  0  0
   92.4510   99.9400  -44.6950 C   0  0  0  1  0  4  0  0  0  0  0  0
   91.8210   98.7070  -45.3220 C   0  0  0  1  0  4  0  0  0  0  0  0
   90.0566   94.7263  -46.8669 O   0  0  0  1  0  2  0  0  0  0  0  0
   92.4427   94.7587  -41.0194 I   0  0  0  1  0  1  0  0  0  0  0  0
   91.3142   91.8457  -46.2306 I   0  0  0  1  0  1  0  0  0  0  0  0
   90.6654   98.1803  -43.7171 H   0  0  0  1  0  1  0  0  0  0  0  0
   89.1302   94.5188  -46.8299 H   0  0  0  1  0  1  0  0  0  0  0  0
   92.2150   92.6874  -43.3684 H   0  0  0  1  0  1  0  0  0  0  0  0
   90.0976   97.2070  -46.4183 H   0  0  0  1  0  1  0  0  0  0  0  0
   88.8196   97.1614  -45.1549 H   0  0  0  1  0  1  0  0  0  0  0  0
   92.3637  102.1537  -43.3125 H   0  0  0  1  0  1  0  0  0  0  0  0
   88.6095   99.2654  -44.2068 H   0  0  0  1  0  1  0  0  0  0  0  0
   89.3242   99.8170  -45.7598 H   0  0  0  1  0  1  0  0  0  0  0  0
   90.9662   96.7886  -42.8771 H   0  0  0  1  0  1  0  0  0  0  0  0
   90.4413  100.4594  -42.9731 H   0  0  0  1  0  1  0  0  0  0  0  0
   89.4801  101.5838  -43.9926 H   0  0  0  1  0  1  0  0  0  0  0  0
   91.1614  101.2320  -45.8572 H   0  0  0  1  0  1  0  0  0  0  0  0
   90.9321  103.9741  -45.1082 H   0  0  0  1  0  1  0  0  0  0  0  0
   91.3012  104.1599  -43.3605 H   0  0  0  1  0  1  0  0  0  0  0  0
   89.2729  102.2318  -44.5807 H   0  0  0  1  0  1  0  0  0  0  0  0
   88.9039  103.7634  -43.7161 H   0  0  0  1  0  1  0  0  0  0  0  0
   89.6523  102.3903  -42.8317 H   0  0  0  1  0  1  0  0  0  0  0  0
   93.5350  103.8200  -44.6735 H   0  0  0  1  0  1  0  0  0  0  0  0
   92.9448  102.9028  -46.1011 H   0  0  0  1  0  1  0  0  0  0  0  0
   94.7472  101.8142  -43.8856 H   0  0  0  1  0  1  0  0  0  0  0  0
   95.2663  102.2929  -45.5363 H   0  0  0  1  0  1  0  0  0  0  0  0
   94.1586  100.8971  -45.3126 H   0  0  0  1  0  1  0  0  0  0  0  0
   92.6876   99.7454  -43.6396 H   0  0  0  1  0  1  0  0  0  0  0  0
   93.3718  100.2075  -45.2346 H   0  0  0  1  0  1  0  0  0  0  0  0
   91.6686   98.8910  -46.3961 H   0  0  0  1  0  1  0  0  0  0  0  0
   92.4999   97.8526  -45.1887 H   0  0  0  1  0  1  0  0  0  0  0  0
  1  6  1  0  0  0  0
  1  7  1  0  0  0  0
  1 18  1  0  0  0  0
  1 22  1  0  0  0  0
  2 12  1  0  0  0  0
  2 13  1  0  0  0  0
  2 15  1  0  0  0  0
  2 27  1  0  0  0  0
  3  5  2  0  0  0  0
  3  8  1  0  0  0  0
  3 20  1  0  0  0  0
  4  6  1  0  0  0  0
  4  8  2  0  0  0  0
  4 10  1  0  0  0  0
  5  9  1  0  0  0  0
  5 24  1  0  0  0  0
  6 25  1  0  0  0  0
  6 26  1  0  0  0  0
  7 11  1  0  0  0  0
  7 28  1  0  0  0  0
  7 29  1  0  0  0  0
  8 30  1  0  0  0  0
  9 10  2  0  0  0  0
  9 21  1  0  0  0  0
 10 19  1  0  0  0  0
 11 12  1  0  0  0  0
 11 31  1  0  0  0  0
 11 32  1  0  0  0  0
 12 17  1  0  0  0  0
 12 33  1  0  0  0  0
 13 14  1  0  0  0  0
 13 34  1  0  0  0  0
 13 35  1  0  0  0  0
 14 36  1  0  0  0  0
 14 37  1  0  0  0  0
 14 38  1  0  0  0  0
 15 16  1  0  0  0  0
 15 39  1  0  0  0  0
 15 40  1  0  0  0  0
 16 41  1  0  0  0  0
 16 42  1  0  0  0  0
 16 43  1  0  0  0  0
 17 18  1  0  0  0  0
 17 44  1  0  0  0  0
 17 45  1  0  0  0  0
 18 46  1  0  0  0  0
 18 47  1  0  0  0  0
 19 23  1  0  0  0  0
M  END
> <ConfScore>
-0.382802 

$$$$
4agm


 47 48  0  0  0  0  0  0  0  0999 V2000
   24.4330    4.1140    6.3520 N   0  3  0  1  0  4  0  0  0  0  0  0
   25.2006    0.4671    8.4879 N   0  3  0  1  0  4  0  0  0  0  0  0
   21.2649    6.7881    6.6806 C   0  0  0  1  0  3  0  0  0  0  0  0
   23.3266    6.1760    5.5453 C   0  0  0  1  0  3  0  0  0  0  0  0
   20.9757    7.7351    5.6897 C   0  0  0  1  0  3  0  0  0  0  0  0
   24.5480    5.2730    5.4500 C   0  0  0  1  0  4  0  0  0  0  0  0
   25.4840    4.1440    7.3870 C   0  0  0  1  0  4  0  0  0  0  0  0
   22.4319    6.0119    6.6103 C   0  0  0  1  0  3  0  0  0  0  0  0
   21.8869    7.8869    4.6318 C   0  0  0  1  0  3  0  0  0  0  0  0
   23.0664    7.1265    4.5231 C   0  0  0  1  0  3  0  0  0  0  0  0
   25.3250    2.9490    8.3330 C   0  0  0  1  0  4  0  0  0  0  0  0
   25.4480    1.6410    7.5540 C   0  0  0  1  0  4  0  0  0  0  0  0
   24.7182   -0.7438    7.7083 C   0  0  0  1  0  4  0  0  0  0  0  0
   25.7208   -1.2292    6.6756 C   0  0  0  1  0  4  0  0  0  0  0  0
   24.2453    0.8056    9.6113 C   0  0  0  1  0  4  0  0  0  0  0  0
   22.8956    1.3116    9.1200 C   0  0  0  1  0  4  0  0  0  0  0  0
   24.4130    1.6290    6.4330 C   0  0  0  1  0  4  0  0  0  0  0  0
   24.5460    2.8760    5.5510 C   0  0  0  1  0  4  0  0  0  0  0  0
   23.9278    7.2965    3.4742 O   0  0  0  1  0  2  0  0  0  0  0  0
   19.9280    6.5253    8.3007 I   0  0  0  1  0  1  0  0  0  0  0  0
   21.4674    9.3249    3.1326 I   0  0  0  1  0  1  0  0  0  0  0  0
   23.5395    4.1450    6.8183 H   0  0  0  1  0  1  0  0  0  0  0  0
   24.8179    7.1461    3.7701 H   0  0  0  1  0  1  0  0  0  0  0  0
   20.0737    8.3341    5.7381 H   0  0  0  1  0  1  0  0  0  0  0  0
   24.6463    4.9121    4.4144 H   0  0  0  1  0  1  0  0  0  0  0  0
   25.4428    5.8517    5.7237 H   0  0  0  1  0  1  0  0  0  0  0  0
   26.0853    0.2271    8.9090 H   0  0  0  1  0  1  0  0  0  0  0  0
   25.4009    5.0774    7.9629 H   0  0  0  1  0  1  0  0  0  0  0  0
   26.4711    4.0970    6.9045 H   0  0  0  1  0  1  0  0  0  0  0  0
   22.6418    5.2818    7.3840 H   0  0  0  1  0  1  0  0  0  0  0  0
   24.3365    2.9945    8.8129 H   0  0  0  1  0  1  0  0  0  0  0  0
   26.1094    2.9884    9.1034 H   0  0  0  1  0  1  0  0  0  0  0  0
   26.4568    1.5619    7.1244 H   0  0  0  1  0  1  0  0  0  0  0  0
   23.7838   -0.4786    7.1904 H   0  0  0  1  0  1  0  0  0  0  0  0
   24.5233   -1.5616    8.4172 H   0  0  0  1  0  1  0  0  0  0  0  0
   26.6643   -1.4927    7.1767 H   0  0  0  1  0  1  0  0  0  0  0  0
   25.9058   -0.4326    5.9396 H   0  0  0  1  0  1  0  0  0  0  0  0
   25.3187   -2.1159    6.1624 H   0  0  0  1  0  1  0  0  0  0  0  0
   24.7041    1.5854   10.2365 H   0  0  0  1  0  1  0  0  0  0  0  0
   24.0810   -0.0995   10.2147 H   0  0  0  1  0  1  0  0  0  0  0  0
   22.2455    1.5202    9.9820 H   0  0  0  1  0  1  0  0  0  0  0  0
   22.4260    0.5456    8.4849 H   0  0  0  1  0  1  0  0  0  0  0  0
   23.0380    2.2333    8.5372 H   0  0  0  1  0  1  0  0  0  0  0  0
   23.4064    1.6058    6.8733 H   0  0  0  1  0  1  0  0  0  0  0  0
   24.5637    0.7322    5.8135 H   0  0  0  1  0  1  0  0  0  0  0  0
   25.5269    2.8597    5.0527 H   0  0  0  1  0  1  0  0  0  0  0  0
   23.7493    2.8655    4.7935 H   0  0  0  1  0  1  0  0  0  0  0  0
  1  6  1  0  0  0  0
  1  7  1  0  0  0  0
  1 18  1  0  0  0  0
  1 22  1  0  0  0  0
  2 12  1  0  0  0  0
  2 13  1  0  0  0  0
  2 15  1  0  0  0  0
  2 27  1  0  0  0  0
  3  5  2  0  0  0  0
  3  8  1  0  0  0  0
  3 20  1  0  0  0  0
  4  6  1  0  0  0  0
  4  8  2  0  0  0  0
  4 10  1  0  0  0  0
  5  9  1  0  0  0  0
  5 24  1  0  0  0  0
  6 25  1  0  0  0  0
  6 26  1  0  0  0  0
  7 11  1  0  0  0  0
  7 28  1  0  0  0  0
  7 29  1  0  0  0  0
  8 30  1  0  0  0  0
  9 10  2  0  0  0  0
  9 21  1  0  0  0  0
 10 19  1  0  0  0  0
 11 12  1  0  0  0  0
 11 31  1  0  0  0  0
 11 32  1  0  0  0  0
 12 17  1  0  0  0  0
 12 33  1  0  0  0  0
 13 14  1  0  0  0  0
 13 34  1  0  0  0  0
 13 35  1  0  0  0  0
 14 36  1  0  0  0  0
 14 37  1  0  0  0  0
 14 38  1  0  0  0  0
 15 16  1  0  0  0  0
 15 39  1  0  0  0  0
 15 40  1  0  0  0  0
 16 41  1  0  0  0  0
 16 42  1  0  0  0  0
 16 43  1  0  0  0  0
 17 18  1  0  0  0  0
 17 44  1  0  0  0  0
 17 45  1  0  0  0  0
 18 46  1  0  0  0  0
 18 47  1  0  0  0  0
 19 23  1  0  0  0  0
M  END
> <ConfScore>
-0.341908 

$$$$
