4agq


 64 66  0  0  0  0  0  0  0  0999 V2000
  123.8943  100.8108  -50.5116 N   0  0  0  1  0  3  0  0  0  0  0  0
  123.9580  107.6030  -44.7890 N   0  3  0  1  0  4  0  0  0  0  0  0
  125.4500  111.6190  -44.1530 N   0  3  0  1  0  4  0  0  0  0  0  0
  122.9781  102.3336  -52.2066 C   0  0  0  1  0  3  0  0  0  0  0  0
  125.0663  103.1093  -46.4136 C   0  0  0  1  0  3  0  0  0  0  0  0
  124.2920  105.1887  -45.4244 C   0  0  0  1  0  3  0  0  0  0  0  0
  125.9557  102.9317  -45.3448 C   0  0  0  1  0  3  0  0  0  0  0  0
  123.3850  106.3880  -45.4850 C   0  0  0  1  0  4  0  0  0  0  0  0
  122.9790  108.7410  -44.8490 C   0  0  0  1  0  4  0  0  0  0  0  0
  124.2457  104.2424  -46.4570 C   0  0  0  1  0  3  0  0  0  0  0  0
  125.0128  102.1694  -47.4875 C   0  0  0  1  0  2  0  0  0  0  0  0
  126.0167  103.8760  -44.3103 C   0  0  0  1  0  3  0  0  0  0  0  0
  124.9283  101.4094  -48.4141 C   0  0  0  1  0  2  0  0  0  0  0  0
  124.8729  100.4424  -49.5194 C   0  0  0  1  0  4  0  0  0  0  0  0
  123.9215  101.9956  -51.2321 C   0  0  0  1  0  3  0  0  0  0  0  0
  125.1799  104.9944  -44.3556 C   0  0  0  1  0  3  0  0  0  0  0  0
  124.9497  102.9169  -50.9866 C   0  0  0  1  0  3  0  0  0  0  0  0
  123.5670  109.9230  -44.0960 C   0  0  0  1  0  4  0  0  0  0  0  0
  125.0281  104.1275  -51.6839 C   0  0  0  1  0  3  0  0  0  0  0  0
  124.9010  110.3060  -44.7320 C   0  0  0  1  0  4  0  0  0  0  0  0
  125.1637  114.1076  -43.9526 C   0  0  0  1  0  4  0  0  0  0  0  0
  125.8040  111.5799  -42.6789 C   0  0  0  1  0  4  0  0  0  0  0  0
  126.8886  110.5464  -42.4297 C   0  0  0  1  0  4  0  0  0  0  0  0
  125.9010  109.1490  -44.6010 C   0  0  0  1  0  4  0  0  0  0  0  0
  125.3410  107.9150  -45.2920 C   0  0  0  1  0  4  0  0  0  0  0  0
  124.0765  104.4413  -52.6476 C   0  0  0  1  0  3  0  0  0  0  0  0
  123.0432  103.5427  -52.9067 C   0  0  0  1  0  3  0  0  0  0  0  0
  124.5315  112.8147  -44.4413 C   0  0  0  1  0  4  0  0  0  0  0  0
  125.2244  105.9453  -43.3605 O   0  0  0  1  0  2  0  0  0  0  0  0
  127.3347  103.6208  -42.6597 I   0  0  0  1  0  1  0  0  0  0  0  0
  122.1741  101.6395  -52.4264 H   0  0  0  1  0  1  0  0  0  0  0  0
  123.1249  100.1521  -50.6971 H   0  0  0  1  0  1  0  0  0  0  0  0
  124.0600  107.3680  -43.8140 H   0  0  0  1  0  1  0  0  0  0  0  0
  125.8640  105.6874  -42.7062 H   0  0  0  1  0  1  0  0  0  0  0  0
  126.5997  102.0608  -45.3177 H   0  0  0  1  0  1  0  0  0  0  0  0
  122.4294  106.1280  -45.0054 H   0  0  0  1  0  1  0  0  0  0  0  0
  123.2086  106.6403  -46.5405 H   0  0  0  1  0  1  0  0  0  0  0  0
  126.3137  111.7932  -44.6434 H   0  0  0  1  0  1  0  0  0  0  0  0
  122.0300  108.4400  -44.3820 H   0  0  0  1  0  1  0  0  0  0  0  0
  122.8000  109.0220  -45.8970 H   0  0  0  1  0  1  0  0  0  0  0  0
  123.5712  104.3890  -47.2930 H   0  0  0  1  0  1  0  0  0  0  0  0
  125.8628  100.3932  -49.9979 H   0  0  0  1  0  1  0  0  0  0  0  0
  124.6131   99.4537  -49.1146 H   0  0  0  1  0  1  0  0  0  0  0  0
  125.6998  102.6856  -50.2391 H   0  0  0  1  0  1  0  0  0  0  0  0
  123.7270  109.6460  -43.0440 H   0  0  0  1  0  1  0  0  0  0  0  0
  122.8750  110.7760  -44.1500 H   0  0  0  1  0  1  0  0  0  0  0  0
  125.8330  104.8212  -51.4724 H   0  0  0  1  0  1  0  0  0  0  0  0
  124.7240  110.4720  -45.8050 H   0  0  0  1  0  1  0  0  0  0  0  0
  126.1318  114.2539  -44.4536 H   0  0  0  1  0  1  0  0  0  0  0  0
  125.3200  114.0505  -42.8649 H   0  0  0  1  0  1  0  0  0  0  0  0
  124.4983  114.9524  -44.1848 H   0  0  0  1  0  1  0  0  0  0  0  0
  124.9091  111.3153  -42.0965 H   0  0  0  1  0  1  0  0  0  0  0  0
  126.1662  112.5709  -42.3652 H   0  0  0  1  0  1  0  0  0  0  0  0
  127.1373  110.5261  -41.3587 H   0  0  0  1  0  1  0  0  0  0  0  0
  127.7853  110.8087  -43.0097 H   0  0  0  1  0  1  0  0  0  0  0  0
  126.5288  109.5535  -42.7409 H   0  0  0  1  0  1  0  0  0  0  0  0
  126.0690  108.9290  -43.5370 H   0  0  0  1  0  1  0  0  0  0  0  0
  126.8540  109.4330  -45.0720 H   0  0  0  1  0  1  0  0  0  0  0  0
  125.2990  108.0960  -46.3760 H   0  0  0  1  0  1  0  0  0  0  0  0
  126.0010  107.0580  -45.0890 H   0  0  0  1  0  1  0  0  0  0  0  0
  124.1373  105.3769  -53.1913 H   0  0  0  1  0  1  0  0  0  0  0  0
  122.2908  103.7802  -53.6504 H   0  0  0  1  0  1  0  0  0  0  0  0
  123.5712  112.6647  -43.9257 H   0  0  0  1  0  1  0  0  0  0  0  0
  124.3583  112.8841  -45.5258 H   0  0  0  1  0  1  0  0  0  0  0  0
  1 14  1  0  0  0  0
  1 15  1  0  0  0  0
  1 32  1  0  0  0  0
  2  8  1  0  0  0  0
  2  9  1  0  0  0  0
  2 25  1  0  0  0  0
  2 33  1  0  0  0  0
  3 20  1  0  0  0  0
  3 22  1  0  0  0  0
  3 28  1  0  0  0  0
  3 38  1  0  0  0  0
  4 15  2  0  0  0  0
  4 27  1  0  0  0  0
  4 31  1  0  0  0  0
  5  7  2  0  0  0  0
  5 10  1  0  0  0  0
  5 11  1  0  0  0  0
  6  8  1  0  0  0  0
  6 10  2  0  0  0  0
  6 16  1  0  0  0  0
  7 12  1  0  0  0  0
  7 35  1  0  0  0  0
  8 36  1  0  0  0  0
  8 37  1  0  0  0  0
  9 18  1  0  0  0  0
  9 39  1  0  0  0  0
  9 40  1  0  0  0  0
 10 41  1  0  0  0  0
 11 13  3  0  0  0  0
 12 16  2  0  0  0  0
 12 30  1  0  0  0  0
 13 14  1  0  0  0  0
 14 42  1  0  0  0  0
 14 43  1  0  0  0  0
 15 17  1  0  0  0  0
 16 29  1  0  0  0  0
 17 19  2  0  0  0  0
 17 44  1  0  0  0  0
 18 20  1  0  0  0  0
 18 45  1  0  0  0  0
 18 46  1  0  0  0  0
 19 26  1  0  0  0  0
 19 47  1  0  0  0  0
 20 24  1  0  0  0  0
 20 48  1  0  0  0  0
 21 28  1  0  0  0  0
 21 49  1  0  0  0  0
 21 50  1  0  0  0  0
 21 51  1  0  0  0  0
 22 23  1  0  0  0  0
 22 52  1  0  0  0  0
 22 53  1  0  0  0  0
 23 54  1  0  0  0  0
 23 55  1  0  0  0  0
 23 56  1  0  0  0  0
 24 25  1  0  0  0  0
 24 57  1  0  0  0  0
 24 58  1  0  0  0  0
 25 59  1  0  0  0  0
 25 60  1  0  0  0  0
 26 27  2  0  0  0  0
 26 61  1  0  0  0  0
 27 62  1  0  0  0  0
 28 63  1  0  0  0  0
 28 64  1  0  0  0  0
 29 34  1  0  0  0  0
M  END
> <ConfScore>
-0.56125 

$$$$
4agq


 64 66  0  0  0  0  0  0  0  0999 V2000
  123.8943  100.8108  -50.5116 N   0  0  0  1  0  3  0  0  0  0  0  0
  123.9580  107.6030  -44.7890 N   0  3  0  1  0  4  0  0  0  0  0  0
  125.4500  111.6190  -44.1530 N   0  3  0  1  0  4  0  0  0  0  0  0
  121.5989  101.3154  -51.2244 C   0  0  0  1  0  3  0  0  0  0  0  0
  125.0663  103.1093  -46.4136 C   0  0  0  1  0  3  0  0  0  0  0  0
  124.2920  105.1887  -45.4244 C   0  0  0  1  0  3  0  0  0  0  0  0
  125.9557  102.9317  -45.3448 C   0  0  0  1  0  3  0  0  0  0  0  0
  123.3850  106.3880  -45.4850 C   0  0  0  1  0  4  0  0  0  0  0  0
  122.9790  108.7410  -44.8490 C   0  0  0  1  0  4  0  0  0  0  0  0
  124.2457  104.2424  -46.4570 C   0  0  0  1  0  3  0  0  0  0  0  0
  125.0128  102.1694  -47.4875 C   0  0  0  1  0  2  0  0  0  0  0  0
  126.0167  103.8760  -44.3103 C   0  0  0  1  0  3  0  0  0  0  0  0
  124.9283  101.4094  -48.4141 C   0  0  0  1  0  2  0  0  0  0  0  0
  124.8729  100.4424  -49.5194 C   0  0  0  1  0  4  0  0  0  0  0  0
  122.5365  100.9379  -50.2588 C   0  0  0  1  0  3  0  0  0  0  0  0
  125.1799  104.9944  -44.3556 C   0  0  0  1  0  3  0  0  0  0  0  0
  122.0592  100.6827  -48.9652 C   0  0  0  1  0  3  0  0  0  0  0  0
  123.5670  109.9230  -44.0960 C   0  0  0  1  0  4  0  0  0  0  0  0
  120.7001  100.7962  -48.6521 C   0  0  0  1  0  3  0  0  0  0  0  0
  124.9010  110.3060  -44.7320 C   0  0  0  1  0  4  0  0  0  0  0  0
  125.1637  114.1076  -43.9526 C   0  0  0  1  0  4  0  0  0  0  0  0
  125.8040  111.5799  -42.6789 C   0  0  0  1  0  4  0  0  0  0  0  0
  126.8886  110.5464  -42.4297 C   0  0  0  1  0  4  0  0  0  0  0  0
  125.9010  109.1490  -44.6010 C   0  0  0  1  0  4  0  0  0  0  0  0
  125.3410  107.9150  -45.2920 C   0  0  0  1  0  4  0  0  0  0  0  0
  119.7869  101.1719  -49.6308 C   0  0  0  1  0  3  0  0  0  0  0  0
  120.2374  101.4277  -50.9246 C   0  0  0  1  0  3  0  0  0  0  0  0
  124.5315  112.8147  -44.4413 C   0  0  0  1  0  4  0  0  0  0  0  0
  125.2244  105.9453  -43.3605 O   0  0  0  1  0  2  0  0  0  0  0  0
  127.3347  103.6208  -42.6597 I   0  0  0  1  0  1  0  0  0  0  0  0
  121.9361  101.5277  -52.2332 H   0  0  0  1  0  1  0  0  0  0  0  0
  124.2244  100.9905  -51.4702 H   0  0  0  1  0  1  0  0  0  0  0  0
  124.0600  107.3680  -43.8140 H   0  0  0  1  0  1  0  0  0  0  0  0
  125.8640  105.6874  -42.7062 H   0  0  0  1  0  1  0  0  0  0  0  0
  126.5997  102.0608  -45.3177 H   0  0  0  1  0  1  0  0  0  0  0  0
  122.4294  106.1280  -45.0054 H   0  0  0  1  0  1  0  0  0  0  0  0
  123.2086  106.6403  -46.5405 H   0  0  0  1  0  1  0  0  0  0  0  0
  126.3137  111.7932  -44.6434 H   0  0  0  1  0  1  0  0  0  0  0  0
  122.0300  108.4400  -44.3820 H   0  0  0  1  0  1  0  0  0  0  0  0
  122.8000  109.0220  -45.8970 H   0  0  0  1  0  1  0  0  0  0  0  0
  123.5712  104.3890  -47.2930 H   0  0  0  1  0  1  0  0  0  0  0  0
  125.8628  100.3932  -49.9979 H   0  0  0  1  0  1  0  0  0  0  0  0
  124.6131   99.4537  -49.1146 H   0  0  0  1  0  1  0  0  0  0  0  0
  122.7594  100.3901  -48.1913 H   0  0  0  1  0  1  0  0  0  0  0  0
  123.7270  109.6460  -43.0440 H   0  0  0  1  0  1  0  0  0  0  0  0
  122.8750  110.7760  -44.1500 H   0  0  0  1  0  1  0  0  0  0  0  0
  120.3595  100.5915  -47.6443 H   0  0  0  1  0  1  0  0  0  0  0  0
  124.7240  110.4720  -45.8050 H   0  0  0  1  0  1  0  0  0  0  0  0
  126.1318  114.2539  -44.4536 H   0  0  0  1  0  1  0  0  0  0  0  0
  125.3200  114.0505  -42.8649 H   0  0  0  1  0  1  0  0  0  0  0  0
  124.4983  114.9524  -44.1848 H   0  0  0  1  0  1  0  0  0  0  0  0
  124.9091  111.3153  -42.0965 H   0  0  0  1  0  1  0  0  0  0  0  0
  126.1662  112.5709  -42.3652 H   0  0  0  1  0  1  0  0  0  0  0  0
  127.1373  110.5261  -41.3587 H   0  0  0  1  0  1  0  0  0  0  0  0
  127.7853  110.8087  -43.0097 H   0  0  0  1  0  1  0  0  0  0  0  0
  126.5288  109.5535  -42.7409 H   0  0  0  1  0  1  0  0  0  0  0  0
  126.0690  108.9290  -43.5370 H   0  0  0  1  0  1  0  0  0  0  0  0
  126.8540  109.4330  -45.0720 H   0  0  0  1  0  1  0  0  0  0  0  0
  125.2990  108.0960  -46.3760 H   0  0  0  1  0  1  0  0  0  0  0  0
  126.0010  107.0580  -45.0890 H   0  0  0  1  0  1  0  0  0  0  0  0
  118.7343  101.2639  -49.3895 H   0  0  0  1  0  1  0  0  0  0  0  0
  119.5334  101.7136  -51.6981 H   0  0  0  1  0  1  0  0  0  0  0  0
  123.5712  112.6647  -43.9257 H   0  0  0  1  0  1  0  0  0  0  0  0
  124.3583  112.8841  -45.5258 H   0  0  0  1  0  1  0  0  0  0  0  0
  1 14  1  0  0  0  0
  1 15  1  0  0  0  0
  1 32  1  0  0  0  0
  2  8  1  0  0  0  0
  2  9  1  0  0  0  0
  2 25  1  0  0  0  0
  2 33  1  0  0  0  0
  3 20  1  0  0  0  0
  3 22  1  0  0  0  0
  3 28  1  0  0  0  0
  3 38  1  0  0  0  0
  4 15  2  0  0  0  0
  4 27  1  0  0  0  0
  4 31  1  0  0  0  0
  5  7  2  0  0  0  0
  5 10  1  0  0  0  0
  5 11  1  0  0  0  0
  6  8  1  0  0  0  0
  6 10  2  0  0  0  0
  6 16  1  0  0  0  0
  7 12  1  0  0  0  0
  7 35  1  0  0  0  0
  8 36  1  0  0  0  0
  8 37  1  0  0  0  0
  9 18  1  0  0  0  0
  9 39  1  0  0  0  0
  9 40  1  0  0  0  0
 10 41  1  0  0  0  0
 11 13  3  0  0  0  0
 12 16  2  0  0  0  0
 12 30  1  0  0  0  0
 13 14  1  0  0  0  0
 14 42  1  0  0  0  0
 14 43  1  0  0  0  0
 15 17  1  0  0  0  0
 16 29  1  0  0  0  0
 17 19  2  0  0  0  0
 17 44  1  0  0  0  0
 18 20  1  0  0  0  0
 18 45  1  0  0  0  0
 18 46  1  0  0  0  0
 19 26  1  0  0  0  0
 19 47  1  0  0  0  0
 20 24  1  0  0  0  0
 20 48  1  0  0  0  0
 21 28  1  0  0  0  0
 21 49  1  0  0  0  0
 21 50  1  0  0  0  0
 21 51  1  0  0  0  0
 22 23  1  0  0  0  0
 22 52  1  0  0  0  0
 22 53  1  0  0  0  0
 23 54  1  0  0  0  0
 23 55  1  0  0  0  0
 23 56  1  0  0  0  0
 24 25  1  0  0  0  0
 24 57  1  0  0  0  0
 24 58  1  0  0  0  0
 25 59  1  0  0  0  0
 25 60  1  0  0  0  0
 26 27  2  0  0  0  0
 26 61  1  0  0  0  0
 27 62  1  0  0  0  0
 28 63  1  0  0  0  0
 28 64  1  0  0  0  0
 29 34  1  0  0  0  0
M  END
> <ConfScore>
-0.551612 

$$$$
4agq


 64 66  0  0  0  0  0  0  0  0999 V2000
  124.0531  100.5486  -50.1847 N   0  0  0  1  0  3  0  0  0  0  0  0
  123.9580  107.6030  -44.7890 N   0  3  0  1  0  4  0  0  0  0  0  0
  125.4500  111.6190  -44.1530 N   0  3  0  1  0  4  0  0  0  0  0  0
  121.8793  101.1805  -51.1369 C   0  0  0  1  0  3  0  0  0  0  0  0
  124.9521  102.9804  -46.0945 C   0  0  0  1  0  3  0  0  0  0  0  0
  124.2091  105.1455  -45.2807 C   0  0  0  1  0  3  0  0  0  0  0  0
  125.7205  102.8078  -44.9349 C   0  0  0  1  0  3  0  0  0  0  0  0
  123.3850  106.3880  -45.4850 C   0  0  0  1  0  4  0  0  0  0  0  0
  122.9790  108.7410  -44.8490 C   0  0  0  1  0  4  0  0  0  0  0  0
  124.2082  104.1530  -46.2701 C   0  0  0  1  0  3  0  0  0  0  0  0
  124.9485  101.9926  -47.1260 C   0  0  0  1  0  2  0  0  0  0  0  0
  125.7357  103.7976  -43.9421 C   0  0  0  1  0  3  0  0  0  0  0  0
  124.9103  101.1933  -48.0221 C   0  0  0  1  0  2  0  0  0  0  0  0
  124.9063  100.1771  -49.0838 C   0  0  0  1  0  4  0  0  0  0  0  0
  122.6869  100.7620  -50.0756 C   0  0  0  1  0  3  0  0  0  0  0  0
  124.9750  104.9564  -44.1205 C   0  0  0  1  0  3  0  0  0  0  0  0
  122.0638  100.5566  -48.8363 C   0  0  0  1  0  3  0  0  0  0  0  0
  123.5670  109.9230  -44.0960 C   0  0  0  1  0  4  0  0  0  0  0  0
  120.6893  100.7575  -48.6673 C   0  0  0  1  0  3  0  0  0  0  0  0
  124.9010  110.3060  -44.7320 C   0  0  0  1  0  4  0  0  0  0  0  0
  124.1868  112.8827  -45.9201 C   0  0  0  1  0  4  0  0  0  0  0  0
  125.8040  111.5799  -42.6789 C   0  0  0  1  0  4  0  0  0  0  0  0
  126.3345  112.9316  -42.2334 C   0  0  0  1  0  4  0  0  0  0  0  0
  125.9010  109.1490  -44.6010 C   0  0  0  1  0  4  0  0  0  0  0  0
  125.3410  107.9150  -45.2920 C   0  0  0  1  0  4  0  0  0  0  0  0
  119.9071  101.1726  -49.7391 C   0  0  0  1  0  3  0  0  0  0  0  0
  120.5037  101.3800  -50.9814 C   0  0  0  1  0  3  0  0  0  0  0  0
  124.5315  112.8147  -44.4413 C   0  0  0  1  0  4  0  0  0  0  0  0
  124.9780  105.9517  -43.1687 O   0  0  0  1  0  2  0  0  0  0  0  0
  126.8681  103.5532  -42.1577 I   0  0  0  1  0  1  0  0  0  0  0  0
  122.3313  101.3560  -52.1071 H   0  0  0  1  0  1  0  0  0  0  0  0
  124.4855  100.6622  -51.1122 H   0  0  0  1  0  1  0  0  0  0  0  0
  124.0600  107.3680  -43.8140 H   0  0  0  1  0  1  0  0  0  0  0  0
  125.5340  105.6921  -42.4428 H   0  0  0  1  0  1  0  0  0  0  0  0
  126.3060  101.9055  -44.8049 H   0  0  0  1  0  1  0  0  0  0  0  0
  122.3733  106.2047  -45.0930 H   0  0  0  1  0  1  0  0  0  0  0  0
  123.3281  106.5968  -46.5629 H   0  0  0  1  0  1  0  0  0  0  0  0
  126.3137  111.7932  -44.6434 H   0  0  0  1  0  1  0  0  0  0  0  0
  122.0300  108.4400  -44.3820 H   0  0  0  1  0  1  0  0  0  0  0  0
  122.8000  109.0220  -45.8970 H   0  0  0  1  0  1  0  0  0  0  0  0
  123.6288  104.2945  -47.1754 H   0  0  0  1  0  1  0  0  0  0  0  0
  125.9336  100.0503  -49.4576 H   0  0  0  1  0  1  0  0  0  0  0  0
  124.5499   99.2254  -48.6640 H   0  0  0  1  0  1  0  0  0  0  0  0
  122.6609  100.2343  -47.9910 H   0  0  0  1  0  1  0  0  0  0  0  0
  123.7270  109.6460  -43.0440 H   0  0  0  1  0  1  0  0  0  0  0  0
  122.8750  110.7760  -44.1500 H   0  0  0  1  0  1  0  0  0  0  0  0
  120.2345  100.5897  -47.6984 H   0  0  0  1  0  1  0  0  0  0  0  0
  124.7240  110.4720  -45.8050 H   0  0  0  1  0  1  0  0  0  0  0  0
  123.6884  111.9503  -46.2230 H   0  0  0  1  0  1  0  0  0  0  0  0
  125.1096  113.0108  -46.5057 H   0  0  0  1  0  1  0  0  0  0  0  0
  123.5147  113.7345  -46.1016 H   0  0  0  1  0  1  0  0  0  0  0  0
  126.5745  110.8133  -42.5097 H   0  0  0  1  0  1  0  0  0  0  0  0
  124.9045  111.3313  -42.0951 H   0  0  0  1  0  1  0  0  0  0  0  0
  126.5881  112.8921  -41.1642 H   0  0  0  1  0  1  0  0  0  0  0  0
  125.5660  113.7002  -42.4002 H   0  0  0  1  0  1  0  0  0  0  0  0
  127.2354  113.1825  -42.8144 H   0  0  0  1  0  1  0  0  0  0  0  0
  126.0690  108.9290  -43.5370 H   0  0  0  1  0  1  0  0  0  0  0  0
  126.8540  109.4330  -45.0720 H   0  0  0  1  0  1  0  0  0  0  0  0
  125.2990  108.0960  -46.3760 H   0  0  0  1  0  1  0  0  0  0  0  0
  126.0010  107.0580  -45.0890 H   0  0  0  1  0  1  0  0  0  0  0  0
  118.8430  101.3321  -49.6094 H   0  0  0  1  0  1  0  0  0  0  0  0
  119.9024  101.6960  -51.8265 H   0  0  0  1  0  1  0  0  0  0  0  0
  125.0440  113.7427  -44.1468 H   0  0  0  1  0  1  0  0  0  0  0  0
  123.6044  112.7071  -43.8584 H   0  0  0  1  0  1  0  0  0  0  0  0
  1 14  1  0  0  0  0
  1 15  1  0  0  0  0
  1 32  1  0  0  0  0
  2  8  1  0  0  0  0
  2  9  1  0  0  0  0
  2 25  1  0  0  0  0
  2 33  1  0  0  0  0
  3 20  1  0  0  0  0
  3 22  1  0  0  0  0
  3 28  1  0  0  0  0
  3 38  1  0  0  0  0
  4 15  2  0  0  0  0
  4 27  1  0  0  0  0
  4 31  1  0  0  0  0
  5  7  2  0  0  0  0
  5 10  1  0  0  0  0
  5 11  1  0  0  0  0
  6  8  1  0  0  0  0
  6 10  2  0  0  0  0
  6 16  1  0  0  0  0
  7 12  1  0  0  0  0
  7 35  1  0  0  0  0
  8 36  1  0  0  0  0
  8 37  1  0  0  0  0
  9 18  1  0  0  0  0
  9 39  1  0  0  0  0
  9 40  1  0  0  0  0
 10 41  1  0  0  0  0
 11 13  3  0  0  0  0
 12 16  2  0  0  0  0
 12 30  1  0  0  0  0
 13 14  1  0  0  0  0
 14 42  1  0  0  0  0
 14 43  1  0  0  0  0
 15 17  1  0  0  0  0
 16 29  1  0  0  0  0
 17 19  2  0  0  0  0
 17 44  1  0  0  0  0
 18 20  1  0  0  0  0
 18 45  1  0  0  0  0
 18 46  1  0  0  0  0
 19 26  1  0  0  0  0
 19 47  1  0  0  0  0
 20 24  1  0  0  0  0
 20 48  1  0  0  0  0
 21 28  1  0  0  0  0
 21 49  1  0  0  0  0
 21 50  1  0  0  0  0
 21 51  1  0  0  0  0
 22 23  1  0  0  0  0
 22 52  1  0  0  0  0
 22 53  1  0  0  0  0
 23 54  1  0  0  0  0
 23 55  1  0  0  0  0
 23 56  1  0  0  0  0
 24 25  1  0  0  0  0
 24 57  1  0  0  0  0
 24 58  1  0  0  0  0
 25 59  1  0  0  0  0
 25 60  1  0  0  0  0
 26 27  2  0  0  0  0
 26 61  1  0  0  0  0
 27 62  1  0  0  0  0
 28 63  1  0  0  0  0
 28 64  1  0  0  0  0
 29 34  1  0  0  0  0
M  END
> <ConfScore>
-0.545958 

$$$$
4agq


 64 66  0  0  0  0  0  0  0  0999 V2000
  123.8943  100.8108  -50.5116 N   0  0  0  1  0  3  0  0  0  0  0  0
  123.9580  107.6030  -44.7890 N   0  3  0  1  0  4  0  0  0  0  0  0
  125.4500  111.6190  -44.1530 N   0  3  0  1  0  4  0  0  0  0  0  0
  122.9781  102.3336  -52.2066 C   0  0  0  1  0  3  0  0  0  0  0  0
  125.0663  103.1093  -46.4136 C   0  0  0  1  0  3  0  0  0  0  0  0
  124.2920  105.1887  -45.4244 C   0  0  0  1  0  3  0  0  0  0  0  0
  125.9557  102.9317  -45.3448 C   0  0  0  1  0  3  0  0  0  0  0  0
  123.3850  106.3880  -45.4850 C   0  0  0  1  0  4  0  0  0  0  0  0
  122.9790  108.7410  -44.8490 C   0  0  0  1  0  4  0  0  0  0  0  0
  124.2457  104.2424  -46.4570 C   0  0  0  1  0  3  0  0  0  0  0  0
  125.0128  102.1694  -47.4875 C   0  0  0  1  0  2  0  0  0  0  0  0
  126.0167  103.8760  -44.3103 C   0  0  0  1  0  3  0  0  0  0  0  0
  124.9283  101.4094  -48.4141 C   0  0  0  1  0  2  0  0  0  0  0  0
  124.8729  100.4424  -49.5194 C   0  0  0  1  0  4  0  0  0  0  0  0
  123.9215  101.9956  -51.2321 C   0  0  0  1  0  3  0  0  0  0  0  0
  125.1799  104.9944  -44.3556 C   0  0  0  1  0  3  0  0  0  0  0  0
  124.9497  102.9169  -50.9866 C   0  0  0  1  0  3  0  0  0  0  0  0
  123.5670  109.9230  -44.0960 C   0  0  0  1  0  4  0  0  0  0  0  0
  125.0281  104.1275  -51.6839 C   0  0  0  1  0  3  0  0  0  0  0  0
  124.9010  110.3060  -44.7320 C   0  0  0  1  0  4  0  0  0  0  0  0
  125.1637  114.1076  -43.9526 C   0  0  0  1  0  4  0  0  0  0  0  0
  125.8040  111.5799  -42.6789 C   0  0  0  1  0  4  0  0  0  0  0  0
  126.3552  112.9249  -42.2386 C   0  0  0  1  0  4  0  0  0  0  0  0
  125.9010  109.1490  -44.6010 C   0  0  0  1  0  4  0  0  0  0  0  0
  125.3410  107.9150  -45.2920 C   0  0  0  1  0  4  0  0  0  0  0  0
  124.0765  104.4413  -52.6476 C   0  0  0  1  0  3  0  0  0  0  0  0
  123.0432  103.5427  -52.9067 C   0  0  0  1  0  3  0  0  0  0  0  0
  124.5315  112.8147  -44.4413 C   0  0  0  1  0  4  0  0  0  0  0  0
  125.2244  105.9453  -43.3605 O   0  0  0  1  0  2  0  0  0  0  0  0
  127.3347  103.6208  -42.6597 I   0  0  0  1  0  1  0  0  0  0  0  0
  122.1741  101.6395  -52.4264 H   0  0  0  1  0  1  0  0  0  0  0  0
  123.1249  100.1521  -50.6971 H   0  0  0  1  0  1  0  0  0  0  0  0
  124.0600  107.3680  -43.8140 H   0  0  0  1  0  1  0  0  0  0  0  0
  125.8640  105.6874  -42.7062 H   0  0  0  1  0  1  0  0  0  0  0  0
  126.5997  102.0608  -45.3177 H   0  0  0  1  0  1  0  0  0  0  0  0
  122.4294  106.1280  -45.0054 H   0  0  0  1  0  1  0  0  0  0  0  0
  123.2086  106.6403  -46.5405 H   0  0  0  1  0  1  0  0  0  0  0  0
  126.3137  111.7932  -44.6434 H   0  0  0  1  0  1  0  0  0  0  0  0
  122.0300  108.4400  -44.3820 H   0  0  0  1  0  1  0  0  0  0  0  0
  122.8000  109.0220  -45.8970 H   0  0  0  1  0  1  0  0  0  0  0  0
  123.5712  104.3890  -47.2930 H   0  0  0  1  0  1  0  0  0  0  0  0
  125.8628  100.3932  -49.9979 H   0  0  0  1  0  1  0  0  0  0  0  0
  124.6131   99.4537  -49.1146 H   0  0  0  1  0  1  0  0  0  0  0  0
  125.6998  102.6856  -50.2391 H   0  0  0  1  0  1  0  0  0  0  0  0
  123.7270  109.6460  -43.0440 H   0  0  0  1  0  1  0  0  0  0  0  0
  122.8750  110.7760  -44.1500 H   0  0  0  1  0  1  0  0  0  0  0  0
  125.8330  104.8212  -51.4724 H   0  0  0  1  0  1  0  0  0  0  0  0
  124.7240  110.4720  -45.8050 H   0  0  0  1  0  1  0  0  0  0  0  0
  126.1318  114.2539  -44.4536 H   0  0  0  1  0  1  0  0  0  0  0  0
  125.3200  114.0505  -42.8649 H   0  0  0  1  0  1  0  0  0  0  0  0
  124.4983  114.9524  -44.1848 H   0  0  0  1  0  1  0  0  0  0  0  0
  126.5628  110.8023  -42.5072 H   0  0  0  1  0  1  0  0  0  0  0  0
  124.9011  111.3471  -42.0938 H   0  0  0  1  0  1  0  0  0  0  0  0
  126.6086  112.8856  -41.1692 H   0  0  0  1  0  1  0  0  0  0  0  0
  125.5984  113.7046  -42.4078 H   0  0  0  1  0  1  0  0  0  0  0  0
  127.2595  113.1601  -42.8208 H   0  0  0  1  0  1  0  0  0  0  0  0
  126.0690  108.9290  -43.5370 H   0  0  0  1  0  1  0  0  0  0  0  0
  126.8540  109.4330  -45.0720 H   0  0  0  1  0  1  0  0  0  0  0  0
  125.2990  108.0960  -46.3760 H   0  0  0  1  0  1  0  0  0  0  0  0
  126.0010  107.0580  -45.0890 H   0  0  0  1  0  1  0  0  0  0  0  0
  124.1373  105.3769  -53.1913 H   0  0  0  1  0  1  0  0  0  0  0  0
  122.2908  103.7802  -53.6504 H   0  0  0  1  0  1  0  0  0  0  0  0
  123.5712  112.6647  -43.9257 H   0  0  0  1  0  1  0  0  0  0  0  0
  124.3583  112.8841  -45.5258 H   0  0  0  1  0  1  0  0  0  0  0  0
  1 14  1  0  0  0  0
  1 15  1  0  0  0  0
  1 32  1  0  0  0  0
  2  8  1  0  0  0  0
  2  9  1  0  0  0  0
  2 25  1  0  0  0  0
  2 33  1  0  0  0  0
  3 20  1  0  0  0  0
  3 22  1  0  0  0  0
  3 28  1  0  0  0  0
  3 38  1  0  0  0  0
  4 15  2  0  0  0  0
  4 27  1  0  0  0  0
  4 31  1  0  0  0  0
  5  7  2  0  0  0  0
  5 10  1  0  0  0  0
  5 11  1  0  0  0  0
  6  8  1  0  0  0  0
  6 10  2  0  0  0  0
  6 16  1  0  0  0  0
  7 12  1  0  0  0  0
  7 35  1  0  0  0  0
  8 36  1  0  0  0  0
  8 37  1  0  0  0  0
  9 18  1  0  0  0  0
  9 39  1  0  0  0  0
  9 40  1  0  0  0  0
 10 41  1  0  0  0  0
 11 13  3  0  0  0  0
 12 16  2  0  0  0  0
 12 30  1  0  0  0  0
 13 14  1  0  0  0  0
 14 42  1  0  0  0  0
 14 43  1  0  0  0  0
 15 17  1  0  0  0  0
 16 29  1  0  0  0  0
 17 19  2  0  0  0  0
 17 44  1  0  0  0  0
 18 20  1  0  0  0  0
 18 45  1  0  0  0  0
 18 46  1  0  0  0  0
 19 26  1  0  0  0  0
 19 47  1  0  0  0  0
 20 24  1  0  0  0  0
 20 48  1  0  0  0  0
 21 28  1  0  0  0  0
 21 49  1  0  0  0  0
 21 50  1  0  0  0  0
 21 51  1  0  0  0  0
 22 23  1  0  0  0  0
 22 52  1  0  0  0  0
 22 53  1  0  0  0  0
 23 54  1  0  0  0  0
 23 55  1  0  0  0  0
 23 56  1  0  0  0  0
 24 25  1  0  0  0  0
 24 57  1  0  0  0  0
 24 58  1  0  0  0  0
 25 59  1  0  0  0  0
 25 60  1  0  0  0  0
 26 27  2  0  0  0  0
 26 61  1  0  0  0  0
 27 62  1  0  0  0  0
 28 63  1  0  0  0  0
 28 64  1  0  0  0  0
 29 34  1  0  0  0  0
M  END
> <ConfScore>
-0.538704 

$$$$
4agq


 64 66  0  0  0  0  0  0  0  0999 V2000
  123.8943  100.8108  -50.5116 N   0  0  0  1  0  3  0  0  0  0  0  0
  123.9580  107.6030  -44.7890 N   0  3  0  1  0  4  0  0  0  0  0  0
  125.4500  111.6190  -44.1530 N   0  3  0  1  0  4  0  0  0  0  0  0
  124.9589  102.9304  -51.1481 C   0  0  0  1  0  3  0  0  0  0  0  0
  125.0663  103.1093  -46.4136 C   0  0  0  1  0  3  0  0  0  0  0  0
  124.2920  105.1887  -45.4244 C   0  0  0  1  0  3  0  0  0  0  0  0
  125.9557  102.9317  -45.3448 C   0  0  0  1  0  3  0  0  0  0  0  0
  123.3850  106.3880  -45.4850 C   0  0  0  1  0  4  0  0  0  0  0  0
  122.9790  108.7410  -44.8490 C   0  0  0  1  0  4  0  0  0  0  0  0
  124.2457  104.2424  -46.4570 C   0  0  0  1  0  3  0  0  0  0  0  0
  125.0128  102.1694  -47.4875 C   0  0  0  1  0  2  0  0  0  0  0  0
  126.0167  103.8760  -44.3103 C   0  0  0  1  0  3  0  0  0  0  0  0
  124.9283  101.4094  -48.4141 C   0  0  0  1  0  2  0  0  0  0  0  0
  124.8729  100.4424  -49.5194 C   0  0  0  1  0  4  0  0  0  0  0  0
  123.9324  101.9866  -51.2462 C   0  0  0  1  0  3  0  0  0  0  0  0
  125.1799  104.9944  -44.3556 C   0  0  0  1  0  3  0  0  0  0  0  0
  122.8877  102.2643  -52.1393 C   0  0  0  1  0  3  0  0  0  0  0  0
  123.5670  109.9230  -44.0960 C   0  0  0  1  0  4  0  0  0  0  0  0
  122.8729  103.4353  -52.9053 C   0  0  0  1  0  3  0  0  0  0  0  0
  124.9010  110.3060  -44.7320 C   0  0  0  1  0  4  0  0  0  0  0  0
  125.1637  114.1076  -43.9526 C   0  0  0  1  0  4  0  0  0  0  0  0
  125.8040  111.5799  -42.6789 C   0  0  0  1  0  4  0  0  0  0  0  0
  126.3552  112.9249  -42.2386 C   0  0  0  1  0  4  0  0  0  0  0  0
  125.9010  109.1490  -44.6010 C   0  0  0  1  0  4  0  0  0  0  0  0
  125.3410  107.9150  -45.2920 C   0  0  0  1  0  4  0  0  0  0  0  0
  123.9065  104.3579  -52.7907 C   0  0  0  1  0  3  0  0  0  0  0  0
  124.9575  104.1021  -51.9119 C   0  0  0  1  0  3  0  0  0  0  0  0
  124.5315  112.8147  -44.4413 C   0  0  0  1  0  4  0  0  0  0  0  0
  125.2244  105.9453  -43.3605 O   0  0  0  1  0  2  0  0  0  0  0  0
  127.3347  103.6208  -42.6597 I   0  0  0  1  0  1  0  0  0  0  0  0
  125.7782  102.7498  -50.4608 H   0  0  0  1  0  1  0  0  0  0  0  0
  123.1162  100.1593  -50.6859 H   0  0  0  1  0  1  0  0  0  0  0  0
  124.0600  107.3680  -43.8140 H   0  0  0  1  0  1  0  0  0  0  0  0
  125.8640  105.6874  -42.7062 H   0  0  0  1  0  1  0  0  0  0  0  0
  126.5997  102.0608  -45.3177 H   0  0  0  1  0  1  0  0  0  0  0  0
  122.4294  106.1280  -45.0054 H   0  0  0  1  0  1  0  0  0  0  0  0
  123.2086  106.6403  -46.5405 H   0  0  0  1  0  1  0  0  0  0  0  0
  126.3137  111.7932  -44.6434 H   0  0  0  1  0  1  0  0  0  0  0  0
  122.0300  108.4400  -44.3820 H   0  0  0  1  0  1  0  0  0  0  0  0
  122.8000  109.0220  -45.8970 H   0  0  0  1  0  1  0  0  0  0  0  0
  123.5712  104.3890  -47.2930 H   0  0  0  1  0  1  0  0  0  0  0  0
  125.8628  100.3932  -49.9979 H   0  0  0  1  0  1  0  0  0  0  0  0
  124.6131   99.4537  -49.1146 H   0  0  0  1  0  1  0  0  0  0  0  0
  122.0741  101.5550  -52.2385 H   0  0  0  1  0  1  0  0  0  0  0  0
  123.7270  109.6460  -43.0440 H   0  0  0  1  0  1  0  0  0  0  0  0
  122.8750  110.7760  -44.1500 H   0  0  0  1  0  1  0  0  0  0  0  0
  122.0533  103.6231  -53.5884 H   0  0  0  1  0  1  0  0  0  0  0  0
  124.7240  110.4720  -45.8050 H   0  0  0  1  0  1  0  0  0  0  0  0
  126.1318  114.2539  -44.4536 H   0  0  0  1  0  1  0  0  0  0  0  0
  125.3200  114.0505  -42.8649 H   0  0  0  1  0  1  0  0  0  0  0  0
  124.4983  114.9524  -44.1848 H   0  0  0  1  0  1  0  0  0  0  0  0
  126.5628  110.8023  -42.5072 H   0  0  0  1  0  1  0  0  0  0  0  0
  124.9011  111.3471  -42.0938 H   0  0  0  1  0  1  0  0  0  0  0  0
  126.6086  112.8856  -41.1692 H   0  0  0  1  0  1  0  0  0  0  0  0
  125.5984  113.7046  -42.4078 H   0  0  0  1  0  1  0  0  0  0  0  0
  127.2595  113.1601  -42.8208 H   0  0  0  1  0  1  0  0  0  0  0  0
  126.0690  108.9290  -43.5370 H   0  0  0  1  0  1  0  0  0  0  0  0
  126.8540  109.4330  -45.0720 H   0  0  0  1  0  1  0  0  0  0  0  0
  125.2990  108.0960  -46.3760 H   0  0  0  1  0  1  0  0  0  0  0  0
  126.0010  107.0580  -45.0890 H   0  0  0  1  0  1  0  0  0  0  0  0
  123.8952  105.2672  -53.3805 H   0  0  0  1  0  1  0  0  0  0  0  0
  125.7732  104.8106  -51.8200 H   0  0  0  1  0  1  0  0  0  0  0  0
  123.5712  112.6647  -43.9257 H   0  0  0  1  0  1  0  0  0  0  0  0
  124.3583  112.8841  -45.5258 H   0  0  0  1  0  1  0  0  0  0  0  0
  1 14  1  0  0  0  0
  1 15  1  0  0  0  0
  1 32  1  0  0  0  0
  2  8  1  0  0  0  0
  2  9  1  0  0  0  0
  2 25  1  0  0  0  0
  2 33  1  0  0  0  0
  3 20  1  0  0  0  0
  3 22  1  0  0  0  0
  3 28  1  0  0  0  0
  3 38  1  0  0  0  0
  4 15  2  0  0  0  0
  4 27  1  0  0  0  0
  4 31  1  0  0  0  0
  5  7  2  0  0  0  0
  5 10  1  0  0  0  0
  5 11  1  0  0  0  0
  6  8  1  0  0  0  0
  6 10  2  0  0  0  0
  6 16  1  0  0  0  0
  7 12  1  0  0  0  0
  7 35  1  0  0  0  0
  8 36  1  0  0  0  0
  8 37  1  0  0  0  0
  9 18  1  0  0  0  0
  9 39  1  0  0  0  0
  9 40  1  0  0  0  0
 10 41  1  0  0  0  0
 11 13  3  0  0  0  0
 12 16  2  0  0  0  0
 12 30  1  0  0  0  0
 13 14  1  0  0  0  0
 14 42  1  0  0  0  0
 14 43  1  0  0  0  0
 15 17  1  0  0  0  0
 16 29  1  0  0  0  0
 17 19  2  0  0  0  0
 17 44  1  0  0  0  0
 18 20  1  0  0  0  0
 18 45  1  0  0  0  0
 18 46  1  0  0  0  0
 19 26  1  0  0  0  0
 19 47  1  0  0  0  0
 20 24  1  0  0  0  0
 20 48  1  0  0  0  0
 21 28  1  0  0  0  0
 21 49  1  0  0  0  0
 21 50  1  0  0  0  0
 21 51  1  0  0  0  0
 22 23  1  0  0  0  0
 22 52  1  0  0  0  0
 22 53  1  0  0  0  0
 23 54  1  0  0  0  0
 23 55  1  0  0  0  0
 23 56  1  0  0  0  0
 24 25  1  0  0  0  0
 24 57  1  0  0  0  0
 24 58  1  0  0  0  0
 25 59  1  0  0  0  0
 25 60  1  0  0  0  0
 26 27  2  0  0  0  0
 26 61  1  0  0  0  0
 27 62  1  0  0  0  0
 28 63  1  0  0  0  0
 28 64  1  0  0  0  0
 29 34  1  0  0  0  0
M  END
> <ConfScore>
-0.538704 

$$$$
4agq


 64 66  0  0  0  0  0  0  0  0999 V2000
  124.0470  100.7117  -50.3813 N   0  0  0  1  0  3  0  0  0  0  0  0
  123.9580  107.6030  -44.7890 N   0  3  0  1  0  4  0  0  0  0  0  0
  125.4500  111.6190  -44.1530 N   0  3  0  1  0  4  0  0  0  0  0  0
  121.8167  101.2698  -51.2449 C   0  0  0  1  0  3  0  0  0  0  0  0
  125.0239  103.0468  -46.2528 C   0  0  0  1  0  3  0  0  0  0  0  0
  124.2503  105.1645  -45.3478 C   0  0  0  1  0  3  0  0  0  0  0  0
  125.8379  102.8625  -45.1266 C   0  0  0  1  0  3  0  0  0  0  0  0
  123.3850  106.3880  -45.4850 C   0  0  0  1  0  4  0  0  0  0  0  0
  122.9790  108.7410  -44.8490 C   0  0  0  1  0  4  0  0  0  0  0  0
  124.2417  104.2020  -46.3663 C   0  0  0  1  0  3  0  0  0  0  0  0
  125.0108  102.0902  -47.3132 C   0  0  0  1  0  2  0  0  0  0  0  0
  125.8610  103.8225  -44.1053 C   0  0  0  1  0  3  0  0  0  0  0  0
  124.9629  101.3170  -48.2314 C   0  0  0  1  0  2  0  0  0  0  0  0
  124.9492  100.3328  -49.3228 C   0  0  0  1  0  4  0  0  0  0  0  0
  122.6749  100.8435  -50.2272 C   0  0  0  1  0  3  0  0  0  0  0  0
  125.0624  104.9635  -44.2214 C   0  0  0  1  0  3  0  0  0  0  0  0
  122.0983  100.5416  -48.9851 C   0  0  0  1  0  3  0  0  0  0  0  0
  123.5670  109.9230  -44.0960 C   0  0  0  1  0  4  0  0  0  0  0  0
  120.7203  100.6574  -48.7716 C   0  0  0  1  0  3  0  0  0  0  0  0
  124.9010  110.3060  -44.7320 C   0  0  0  1  0  4  0  0  0  0  0  0
  125.1637  114.1076  -43.9526 C   0  0  0  1  0  4  0  0  0  0  0  0
  125.8040  111.5799  -42.6789 C   0  0  0  1  0  4  0  0  0  0  0  0
  126.3345  112.9316  -42.2334 C   0  0  0  1  0  4  0  0  0  0  0  0
  125.9010  109.1490  -44.6010 C   0  0  0  1  0  4  0  0  0  0  0  0
  125.3410  107.9150  -45.2920 C   0  0  0  1  0  4  0  0  0  0  0  0
  119.8874  101.0822  -49.8005 C   0  0  0  1  0  3  0  0  0  0  0  0
  120.4372  101.3849  -51.0449 C   0  0  0  1  0  3  0  0  0  0  0  0
  124.5315  112.8147  -44.4413 C   0  0  0  1  0  4  0  0  0  0  0  0
  125.0717  105.9299  -43.2404 O   0  0  0  1  0  2  0  0  0  0  0  0
  127.0632  103.5585  -42.3699 I   0  0  0  1  0  1  0  0  0  0  0  0
  122.2315  101.5188  -52.2156 H   0  0  0  1  0  1  0  0  0  0  0  0
  124.4467  100.8958  -51.3121 H   0  0  0  1  0  1  0  0  0  0  0  0
  124.0600  107.3680  -43.8140 H   0  0  0  1  0  1  0  0  0  0  0  0
  125.6605  105.6653  -42.5426 H   0  0  0  1  0  1  0  0  0  0  0  0
  126.4527  101.9741  -45.0448 H   0  0  0  1  0  1  0  0  0  0  0  0
  122.3982  106.1686  -45.0505 H   0  0  0  1  0  1  0  0  0  0  0  0
  123.2717  106.6183  -46.5541 H   0  0  0  1  0  1  0  0  0  0  0  0
  126.3137  111.7932  -44.6434 H   0  0  0  1  0  1  0  0  0  0  0  0
  122.0300  108.4400  -44.3820 H   0  0  0  1  0  1  0  0  0  0  0  0
  122.8000  109.0220  -45.8970 H   0  0  0  1  0  1  0  0  0  0  0  0
  123.6264  104.3533  -47.2460 H   0  0  0  1  0  1  0  0  0  0  0  0
  125.9656  100.2470  -49.7361 H   0  0  0  1  0  1  0  0  0  0  0  0
  124.6349   99.3592  -48.9201 H   0  0  0  1  0  1  0  0  0  0  0  0
  122.7352  100.2105  -48.1729 H   0  0  0  1  0  1  0  0  0  0  0  0
  123.7270  109.6460  -43.0440 H   0  0  0  1  0  1  0  0  0  0  0  0
  122.8750  110.7760  -44.1500 H   0  0  0  1  0  1  0  0  0  0  0  0
  120.3022  100.4160  -47.8017 H   0  0  0  1  0  1  0  0  0  0  0  0
  124.7240  110.4720  -45.8050 H   0  0  0  1  0  1  0  0  0  0  0  0
  126.1318  114.2539  -44.4536 H   0  0  0  1  0  1  0  0  0  0  0  0
  125.3200  114.0505  -42.8649 H   0  0  0  1  0  1  0  0  0  0  0  0
  124.4983  114.9524  -44.1848 H   0  0  0  1  0  1  0  0  0  0  0  0
  126.5745  110.8133  -42.5097 H   0  0  0  1  0  1  0  0  0  0  0  0
  124.9045  111.3313  -42.0951 H   0  0  0  1  0  1  0  0  0  0  0  0
  126.5881  112.8921  -41.1642 H   0  0  0  1  0  1  0  0  0  0  0  0
  125.5660  113.7002  -42.4002 H   0  0  0  1  0  1  0  0  0  0  0  0
  127.2354  113.1825  -42.8144 H   0  0  0  1  0  1  0  0  0  0  0  0
  126.0690  108.9290  -43.5370 H   0  0  0  1  0  1  0  0  0  0  0  0
  126.8540  109.4330  -45.0720 H   0  0  0  1  0  1  0  0  0  0  0  0
  125.2990  108.0960  -46.3760 H   0  0  0  1  0  1  0  0  0  0  0  0
  126.0010  107.0580  -45.0890 H   0  0  0  1  0  1  0  0  0  0  0  0
  118.8202  101.1759  -49.6362 H   0  0  0  1  0  1  0  0  0  0  0  0
  119.7964  101.7094  -51.8571 H   0  0  0  1  0  1  0  0  0  0  0  0
  123.5712  112.6647  -43.9257 H   0  0  0  1  0  1  0  0  0  0  0  0
  124.3583  112.8841  -45.5258 H   0  0  0  1  0  1  0  0  0  0  0  0
  1 14  1  0  0  0  0
  1 15  1  0  0  0  0
  1 32  1  0  0  0  0
  2  8  1  0  0  0  0
  2  9  1  0  0  0  0
  2 25  1  0  0  0  0
  2 33  1  0  0  0  0
  3 20  1  0  0  0  0
  3 22  1  0  0  0  0
  3 28  1  0  0  0  0
  3 38  1  0  0  0  0
  4 15  2  0  0  0  0
  4 27  1  0  0  0  0
  4 31  1  0  0  0  0
  5  7  2  0  0  0  0
  5 10  1  0  0  0  0
  5 11  1  0  0  0  0
  6  8  1  0  0  0  0
  6 10  2  0  0  0  0
  6 16  1  0  0  0  0
  7 12  1  0  0  0  0
  7 35  1  0  0  0  0
  8 36  1  0  0  0  0
  8 37  1  0  0  0  0
  9 18  1  0  0  0  0
  9 39  1  0  0  0  0
  9 40  1  0  0  0  0
 10 41  1  0  0  0  0
 11 13  3  0  0  0  0
 12 16  2  0  0  0  0
 12 30  1  0  0  0  0
 13 14  1  0  0  0  0
 14 42  1  0  0  0  0
 14 43  1  0  0  0  0
 15 17  1  0  0  0  0
 16 29  1  0  0  0  0
 17 19  2  0  0  0  0
 17 44  1  0  0  0  0
 18 20  1  0  0  0  0
 18 45  1  0  0  0  0
 18 46  1  0  0  0  0
 19 26  1  0  0  0  0
 19 47  1  0  0  0  0
 20 24  1  0  0  0  0
 20 48  1  0  0  0  0
 21 28  1  0  0  0  0
 21 49  1  0  0  0  0
 21 50  1  0  0  0  0
 21 51  1  0  0  0  0
 22 23  1  0  0  0  0
 22 52  1  0  0  0  0
 22 53  1  0  0  0  0
 23 54  1  0  0  0  0
 23 55  1  0  0  0  0
 23 56  1  0  0  0  0
 24 25  1  0  0  0  0
 24 57  1  0  0  0  0
 24 58  1  0  0  0  0
 25 59  1  0  0  0  0
 25 60  1  0  0  0  0
 26 27  2  0  0  0  0
 26 61  1  0  0  0  0
 27 62  1  0  0  0  0
 28 63  1  0  0  0  0
 28 64  1  0  0  0  0
 29 34  1  0  0  0  0
M  END
> <ConfScore>
-0.529066 

$$$$
4agq


 64 66  0  0  0  0  0  0  0  0999 V2000
  124.2326   99.8365  -49.0893 N   0  0  0  1  0  3  0  0  0  0  0  0
  123.9580  107.6030  -44.7890 N   0  3  0  1  0  4  0  0  0  0  0  0
  125.4500  111.6190  -44.1530 N   0  3  0  1  0  4  0  0  0  0  0  0
  124.3998  101.0851  -51.1975 C   0  0  0  1  0  3  0  0  0  0  0  0
  124.4007  102.7364  -45.2146 C   0  0  0  1  0  3  0  0  0  0  0  0
  123.8758  105.0884  -44.9066 C   0  0  0  1  0  3  0  0  0  0  0  0
  124.7731  102.6426  -43.8665 C   0  0  0  1  0  3  0  0  0  0  0  0
  123.3850  106.3880  -45.4850 C   0  0  0  1  0  4  0  0  0  0  0  0
  122.9790  108.7410  -44.8490 C   0  0  0  1  0  4  0  0  0  0  0  0
  123.9646  103.9608  -45.7341 C   0  0  0  1  0  3  0  0  0  0  0  0
  124.4994  101.6071  -46.0833 C   0  0  0  1  0  2  0  0  0  0  0  0
  124.6964  103.7659  -43.0312 C   0  0  0  1  0  3  0  0  0  0  0  0
  124.5629  100.6886  -46.8550 C   0  0  0  1  0  2  0  0  0  0  0  0
  124.6644   99.5268  -47.7493 C   0  0  0  1  0  4  0  0  0  0  0  0
  124.8140  100.8069  -49.8917 C   0  0  0  1  0  3  0  0  0  0  0  0
  124.2427  104.9788  -43.5568 C   0  0  0  1  0  3  0  0  0  0  0  0
  125.8832  101.5582  -49.3832 C   0  0  0  1  0  3  0  0  0  0  0  0
  123.5670  109.9230  -44.0960 C   0  0  0  1  0  4  0  0  0  0  0  0
  126.5089  102.5492  -50.1477 C   0  0  0  1  0  3  0  0  0  0  0  0
  124.9010  110.3060  -44.7320 C   0  0  0  1  0  4  0  0  0  0  0  0
  125.1637  114.1076  -43.9526 C   0  0  0  1  0  4  0  0  0  0  0  0
  125.8040  111.5799  -42.6789 C   0  0  0  1  0  4  0  0  0  0  0  0
  126.8886  110.5464  -42.4297 C   0  0  0  1  0  4  0  0  0  0  0  0
  125.9010  109.1490  -44.6010 C   0  0  0  1  0  4  0  0  0  0  0  0
  125.3410  107.9150  -45.2920 C   0  0  0  1  0  4  0  0  0  0  0  0
  126.0773  102.8080  -51.4437 C   0  0  0  1  0  3  0  0  0  0  0  0
  125.0142  102.0763  -51.9696 C   0  0  0  1  0  3  0  0  0  0  0  0
  124.5315  112.8147  -44.4413 C   0  0  0  1  0  4  0  0  0  0  0  0
  124.1669  106.1027  -42.7646 O   0  0  0  1  0  2  0  0  0  0  0  0
  125.2263  103.6495  -40.9740 I   0  0  0  1  0  1  0  0  0  0  0  0
  123.5804  100.5166  -51.6239 H   0  0  0  1  0  1  0  0  0  0  0  0
  123.4409   99.3033  -49.4756 H   0  0  0  1  0  1  0  0  0  0  0  0
  124.0600  107.3680  -43.8140 H   0  0  0  1  0  1  0  0  0  0  0  0
  124.4427  105.8852  -41.8814 H   0  0  0  1  0  1  0  0  0  0  0  0
  125.1224  101.6977  -43.4676 H   0  0  0  1  0  1  0  0  0  0  0  0
  122.2887  106.4181  -45.3960 H   0  0  0  1  0  1  0  0  0  0  0  0
  123.6677  106.4274  -46.5468 H   0  0  0  1  0  1  0  0  0  0  0  0
  126.3137  111.7932  -44.6434 H   0  0  0  1  0  1  0  0  0  0  0  0
  122.0300  108.4400  -44.3820 H   0  0  0  1  0  1  0  0  0  0  0  0
  122.8000  109.0220  -45.8970 H   0  0  0  1  0  1  0  0  0  0  0  0
  123.6944  104.0377  -46.7811 H   0  0  0  1  0  1  0  0  0  0  0  0
  125.7131   99.1944  -47.7819 H   0  0  0  1  0  1  0  0  0  0  0  0
  124.0363   98.7163  -47.3524 H   0  0  0  1  0  1  0  0  0  0  0  0
  126.2317  101.3668  -48.3748 H   0  0  0  1  0  1  0  0  0  0  0  0
  123.7270  109.6460  -43.0440 H   0  0  0  1  0  1  0  0  0  0  0  0
  122.8750  110.7760  -44.1500 H   0  0  0  1  0  1  0  0  0  0  0  0
  127.3320  103.1152  -49.7283 H   0  0  0  1  0  1  0  0  0  0  0  0
  124.7240  110.4720  -45.8050 H   0  0  0  1  0  1  0  0  0  0  0  0
  126.1318  114.2539  -44.4536 H   0  0  0  1  0  1  0  0  0  0  0  0
  125.3200  114.0505  -42.8649 H   0  0  0  1  0  1  0  0  0  0  0  0
  124.4983  114.9524  -44.1848 H   0  0  0  1  0  1  0  0  0  0  0  0
  124.9091  111.3153  -42.0965 H   0  0  0  1  0  1  0  0  0  0  0  0
  126.1662  112.5709  -42.3652 H   0  0  0  1  0  1  0  0  0  0  0  0
  127.1373  110.5261  -41.3587 H   0  0  0  1  0  1  0  0  0  0  0  0
  127.7853  110.8087  -43.0097 H   0  0  0  1  0  1  0  0  0  0  0  0
  126.5288  109.5535  -42.7409 H   0  0  0  1  0  1  0  0  0  0  0  0
  126.0690  108.9290  -43.5370 H   0  0  0  1  0  1  0  0  0  0  0  0
  126.8540  109.4330  -45.0720 H   0  0  0  1  0  1  0  0  0  0  0  0
  125.2990  108.0960  -46.3760 H   0  0  0  1  0  1  0  0  0  0  0  0
  126.0010  107.0580  -45.0890 H   0  0  0  1  0  1  0  0  0  0  0  0
  126.5629  103.5728  -52.0387 H   0  0  0  1  0  1  0  0  0  0  0  0
  124.6637  102.2749  -52.9762 H   0  0  0  1  0  1  0  0  0  0  0  0
  123.5712  112.6647  -43.9257 H   0  0  0  1  0  1  0  0  0  0  0  0
  124.3583  112.8841  -45.5258 H   0  0  0  1  0  1  0  0  0  0  0  0
  1 14  1  0  0  0  0
  1 15  1  0  0  0  0
  1 32  1  0  0  0  0
  2  8  1  0  0  0  0
  2  9  1  0  0  0  0
  2 25  1  0  0  0  0
  2 33  1  0  0  0  0
  3 20  1  0  0  0  0
  3 22  1  0  0  0  0
  3 28  1  0  0  0  0
  3 38  1  0  0  0  0
  4 15  2  0  0  0  0
  4 27  1  0  0  0  0
  4 31  1  0  0  0  0
  5  7  2  0  0  0  0
  5 10  1  0  0  0  0
  5 11  1  0  0  0  0
  6  8  1  0  0  0  0
  6 10  2  0  0  0  0
  6 16  1  0  0  0  0
  7 12  1  0  0  0  0
  7 35  1  0  0  0  0
  8 36  1  0  0  0  0
  8 37  1  0  0  0  0
  9 18  1  0  0  0  0
  9 39  1  0  0  0  0
  9 40  1  0  0  0  0
 10 41  1  0  0  0  0
 11 13  3  0  0  0  0
 12 16  2  0  0  0  0
 12 30  1  0  0  0  0
 13 14  1  0  0  0  0
 14 42  1  0  0  0  0
 14 43  1  0  0  0  0
 15 17  1  0  0  0  0
 16 29  1  0  0  0  0
 17 19  2  0  0  0  0
 17 44  1  0  0  0  0
 18 20  1  0  0  0  0
 18 45  1  0  0  0  0
 18 46  1  0  0  0  0
 19 26  1  0  0  0  0
 19 47  1  0  0  0  0
 20 24  1  0  0  0  0
 20 48  1  0  0  0  0
 21 28  1  0  0  0  0
 21 49  1  0  0  0  0
 21 50  1  0  0  0  0
 21 51  1  0  0  0  0
 22 23  1  0  0  0  0
 22 52  1  0  0  0  0
 22 53  1  0  0  0  0
 23 54  1  0  0  0  0
 23 55  1  0  0  0  0
 23 56  1  0  0  0  0
 24 25  1  0  0  0  0
 24 57  1  0  0  0  0
 24 58  1  0  0  0  0
 25 59  1  0  0  0  0
 25 60  1  0  0  0  0
 26 27  2  0  0  0  0
 26 61  1  0  0  0  0
 27 62  1  0  0  0  0
 28 63  1  0  0  0  0
 28 64  1  0  0  0  0
 29 34  1  0  0  0  0
M  END
> <ConfScore>
-0.528883 

$$$$
4agq


 64 66  0  0  0  0  0  0  0  0999 V2000
  124.2326   99.8365  -49.0893 N   0  0  0  1  0  3  0  0  0  0  0  0
  123.9580  107.6030  -44.7890 N   0  3  0  1  0  4  0  0  0  0  0  0
  125.4500  111.6190  -44.1530 N   0  3  0  1  0  4  0  0  0  0  0  0
  126.0533  101.4072  -49.5884 C   0  0  0  1  0  3  0  0  0  0  0  0
  124.4007  102.7364  -45.2146 C   0  0  0  1  0  3  0  0  0  0  0  0
  123.8758  105.0884  -44.9066 C   0  0  0  1  0  3  0  0  0  0  0  0
  124.7731  102.6426  -43.8665 C   0  0  0  1  0  3  0  0  0  0  0  0
  123.3850  106.3880  -45.4850 C   0  0  0  1  0  4  0  0  0  0  0  0
  122.9790  108.7410  -44.8490 C   0  0  0  1  0  4  0  0  0  0  0  0
  123.9646  103.9608  -45.7341 C   0  0  0  1  0  3  0  0  0  0  0  0
  124.4994  101.6071  -46.0833 C   0  0  0  1  0  2  0  0  0  0  0  0
  124.6964  103.7659  -43.0312 C   0  0  0  1  0  3  0  0  0  0  0  0
  124.5629  100.6886  -46.8550 C   0  0  0  1  0  2  0  0  0  0  0  0
  124.6644   99.5268  -47.7493 C   0  0  0  1  0  4  0  0  0  0  0  0
  124.8858  100.7209  -49.9347 C   0  0  0  1  0  3  0  0  0  0  0  0
  124.2427  104.9788  -43.5568 C   0  0  0  1  0  3  0  0  0  0  0  0
  124.3567  100.9570  -51.2117 C   0  0  0  1  0  3  0  0  0  0  0  0
  123.5670  109.9230  -44.0960 C   0  0  0  1  0  4  0  0  0  0  0  0
  124.9724  101.8396  -52.1061 C   0  0  0  1  0  3  0  0  0  0  0  0
  124.9010  110.3060  -44.7320 C   0  0  0  1  0  4  0  0  0  0  0  0
  125.1637  114.1076  -43.9526 C   0  0  0  1  0  4  0  0  0  0  0  0
  125.8040  111.5799  -42.6789 C   0  0  0  1  0  4  0  0  0  0  0  0
  126.8886  110.5464  -42.4297 C   0  0  0  1  0  4  0  0  0  0  0  0
  125.9010  109.1490  -44.6010 C   0  0  0  1  0  4  0  0  0  0  0  0
  125.3410  107.9150  -45.2920 C   0  0  0  1  0  4  0  0  0  0  0  0
  126.1340  102.5092  -51.7384 C   0  0  0  1  0  3  0  0  0  0  0  0
  126.6804  102.2881  -50.4755 C   0  0  0  1  0  3  0  0  0  0  0  0
  124.5315  112.8147  -44.4413 C   0  0  0  1  0  4  0  0  0  0  0  0
  124.1669  106.1027  -42.7646 O   0  0  0  1  0  2  0  0  0  0  0  0
  125.2263  103.6495  -40.9740 I   0  0  0  1  0  1  0  0  0  0  0  0
  126.4843  101.2531  -48.6051 H   0  0  0  1  0  1  0  0  0  0  0  0
  123.3839   99.3717  -49.4414 H   0  0  0  1  0  1  0  0  0  0  0  0
  124.0600  107.3680  -43.8140 H   0  0  0  1  0  1  0  0  0  0  0  0
  124.4427  105.8852  -41.8814 H   0  0  0  1  0  1  0  0  0  0  0  0
  125.1224  101.6977  -43.4676 H   0  0  0  1  0  1  0  0  0  0  0  0
  122.2887  106.4181  -45.3960 H   0  0  0  1  0  1  0  0  0  0  0  0
  123.6677  106.4274  -46.5468 H   0  0  0  1  0  1  0  0  0  0  0  0
  126.3137  111.7932  -44.6434 H   0  0  0  1  0  1  0  0  0  0  0  0
  122.0300  108.4400  -44.3820 H   0  0  0  1  0  1  0  0  0  0  0  0
  122.8000  109.0220  -45.8970 H   0  0  0  1  0  1  0  0  0  0  0  0
  123.6944  104.0377  -46.7811 H   0  0  0  1  0  1  0  0  0  0  0  0
  125.7131   99.1944  -47.7819 H   0  0  0  1  0  1  0  0  0  0  0  0
  124.0363   98.7163  -47.3524 H   0  0  0  1  0  1  0  0  0  0  0  0
  123.4508  100.4432  -51.5121 H   0  0  0  1  0  1  0  0  0  0  0  0
  123.7270  109.6460  -43.0440 H   0  0  0  1  0  1  0  0  0  0  0  0
  122.8750  110.7760  -44.1500 H   0  0  0  1  0  1  0  0  0  0  0  0
  124.5419  102.0016  -53.0870 H   0  0  0  1  0  1  0  0  0  0  0  0
  124.7240  110.4720  -45.8050 H   0  0  0  1  0  1  0  0  0  0  0  0
  126.1318  114.2539  -44.4536 H   0  0  0  1  0  1  0  0  0  0  0  0
  125.3200  114.0505  -42.8649 H   0  0  0  1  0  1  0  0  0  0  0  0
  124.4983  114.9524  -44.1848 H   0  0  0  1  0  1  0  0  0  0  0  0
  124.9091  111.3153  -42.0965 H   0  0  0  1  0  1  0  0  0  0  0  0
  126.1662  112.5709  -42.3652 H   0  0  0  1  0  1  0  0  0  0  0  0
  127.1373  110.5261  -41.3587 H   0  0  0  1  0  1  0  0  0  0  0  0
  127.7853  110.8087  -43.0097 H   0  0  0  1  0  1  0  0  0  0  0  0
  126.5288  109.5535  -42.7409 H   0  0  0  1  0  1  0  0  0  0  0  0
  126.0690  108.9290  -43.5370 H   0  0  0  1  0  1  0  0  0  0  0  0
  126.8540  109.4330  -45.0720 H   0  0  0  1  0  1  0  0  0  0  0  0
  125.2990  108.0960  -46.3760 H   0  0  0  1  0  1  0  0  0  0  0  0
  126.0010  107.0580  -45.0890 H   0  0  0  1  0  1  0  0  0  0  0  0
  126.6105  103.1958  -52.4284 H   0  0  0  1  0  1  0  0  0  0  0  0
  127.5904  102.7986  -50.1807 H   0  0  0  1  0  1  0  0  0  0  0  0
  123.5712  112.6647  -43.9257 H   0  0  0  1  0  1  0  0  0  0  0  0
  124.3583  112.8841  -45.5258 H   0  0  0  1  0  1  0  0  0  0  0  0
  1 14  1  0  0  0  0
  1 15  1  0  0  0  0
  1 32  1  0  0  0  0
  2  8  1  0  0  0  0
  2  9  1  0  0  0  0
  2 25  1  0  0  0  0
  2 33  1  0  0  0  0
  3 20  1  0  0  0  0
  3 22  1  0  0  0  0
  3 28  1  0  0  0  0
  3 38  1  0  0  0  0
  4 15  2  0  0  0  0
  4 27  1  0  0  0  0
  4 31  1  0  0  0  0
  5  7  2  0  0  0  0
  5 10  1  0  0  0  0
  5 11  1  0  0  0  0
  6  8  1  0  0  0  0
  6 10  2  0  0  0  0
  6 16  1  0  0  0  0
  7 12  1  0  0  0  0
  7 35  1  0  0  0  0
  8 36  1  0  0  0  0
  8 37  1  0  0  0  0
  9 18  1  0  0  0  0
  9 39  1  0  0  0  0
  9 40  1  0  0  0  0
 10 41  1  0  0  0  0
 11 13  3  0  0  0  0
 12 16  2  0  0  0  0
 12 30  1  0  0  0  0
 13 14  1  0  0  0  0
 14 42  1  0  0  0  0
 14 43  1  0  0  0  0
 15 17  1  0  0  0  0
 16 29  1  0  0  0  0
 17 19  2  0  0  0  0
 17 44  1  0  0  0  0
 18 20  1  0  0  0  0
 18 45  1  0  0  0  0
 18 46  1  0  0  0  0
 19 26  1  0  0  0  0
 19 47  1  0  0  0  0
 20 24  1  0  0  0  0
 20 48  1  0  0  0  0
 21 28  1  0  0  0  0
 21 49  1  0  0  0  0
 21 50  1  0  0  0  0
 21 51  1  0  0  0  0
 22 23  1  0  0  0  0
 22 52  1  0  0  0  0
 22 53  1  0  0  0  0
 23 54  1  0  0  0  0
 23 55  1  0  0  0  0
 23 56  1  0  0  0  0
 24 25  1  0  0  0  0
 24 57  1  0  0  0  0
 24 58  1  0  0  0  0
 25 59  1  0  0  0  0
 25 60  1  0  0  0  0
 26 27  2  0  0  0  0
 26 61  1  0  0  0  0
 27 62  1  0  0  0  0
 28 63  1  0  0  0  0
 28 64  1  0  0  0  0
 29 34  1  0  0  0  0
M  END
> <ConfScore>
-0.528883 

$$$$
4agq


 64 66  0  0  0  0  0  0  0  0999 V2000
  124.2326   99.8365  -49.0893 N   0  0  0  1  0  3  0  0  0  0  0  0
  123.9580  107.6030  -44.7890 N   0  3  0  1  0  4  0  0  0  0  0  0
  125.4500  111.6190  -44.1530 N   0  3  0  1  0  4  0  0  0  0  0  0
  124.3998  101.0851  -51.1975 C   0  0  0  1  0  3  0  0  0  0  0  0
  124.4007  102.7364  -45.2146 C   0  0  0  1  0  3  0  0  0  0  0  0
  123.8758  105.0884  -44.9066 C   0  0  0  1  0  3  0  0  0  0  0  0
  124.7731  102.6426  -43.8665 C   0  0  0  1  0  3  0  0  0  0  0  0
  123.3850  106.3880  -45.4850 C   0  0  0  1  0  4  0  0  0  0  0  0
  122.9790  108.7410  -44.8490 C   0  0  0  1  0  4  0  0  0  0  0  0
  123.9646  103.9608  -45.7341 C   0  0  0  1  0  3  0  0  0  0  0  0
  124.4994  101.6071  -46.0833 C   0  0  0  1  0  2  0  0  0  0  0  0
  124.6964  103.7659  -43.0312 C   0  0  0  1  0  3  0  0  0  0  0  0
  124.5629  100.6886  -46.8550 C   0  0  0  1  0  2  0  0  0  0  0  0
  124.6644   99.5268  -47.7493 C   0  0  0  1  0  4  0  0  0  0  0  0
  124.8140  100.8069  -49.8917 C   0  0  0  1  0  3  0  0  0  0  0  0
  124.2427  104.9788  -43.5568 C   0  0  0  1  0  3  0  0  0  0  0  0
  125.8832  101.5582  -49.3832 C   0  0  0  1  0  3  0  0  0  0  0  0
  123.5670  109.9230  -44.0960 C   0  0  0  1  0  4  0  0  0  0  0  0
  126.5089  102.5492  -50.1477 C   0  0  0  1  0  3  0  0  0  0  0  0
  124.9010  110.3060  -44.7320 C   0  0  0  1  0  4  0  0  0  0  0  0
  123.1566  112.5950  -43.8316 C   0  0  0  1  0  4  0  0  0  0  0  0
  125.8040  111.5799  -42.6789 C   0  0  0  1  0  4  0  0  0  0  0  0
  126.8886  110.5464  -42.4297 C   0  0  0  1  0  4  0  0  0  0  0  0
  125.9010  109.1490  -44.6010 C   0  0  0  1  0  4  0  0  0  0  0  0
  125.3410  107.9150  -45.2920 C   0  0  0  1  0  4  0  0  0  0  0  0
  126.0773  102.8080  -51.4437 C   0  0  0  1  0  3  0  0  0  0  0  0
  125.0142  102.0763  -51.9696 C   0  0  0  1  0  3  0  0  0  0  0  0
  124.5315  112.8147  -44.4413 C   0  0  0  1  0  4  0  0  0  0  0  0
  124.1669  106.1027  -42.7646 O   0  0  0  1  0  2  0  0  0  0  0  0
  125.2263  103.6495  -40.9740 I   0  0  0  1  0  1  0  0  0  0  0  0
  123.5804  100.5166  -51.6239 H   0  0  0  1  0  1  0  0  0  0  0  0
  123.4409   99.3033  -49.4756 H   0  0  0  1  0  1  0  0  0  0  0  0
  124.0600  107.3680  -43.8140 H   0  0  0  1  0  1  0  0  0  0  0  0
  124.4427  105.8852  -41.8814 H   0  0  0  1  0  1  0  0  0  0  0  0
  125.1224  101.6977  -43.4676 H   0  0  0  1  0  1  0  0  0  0  0  0
  122.2887  106.4181  -45.3960 H   0  0  0  1  0  1  0  0  0  0  0  0
  123.6677  106.4274  -46.5468 H   0  0  0  1  0  1  0  0  0  0  0  0
  126.3137  111.7932  -44.6434 H   0  0  0  1  0  1  0  0  0  0  0  0
  122.0300  108.4400  -44.3820 H   0  0  0  1  0  1  0  0  0  0  0  0
  122.8000  109.0220  -45.8970 H   0  0  0  1  0  1  0  0  0  0  0  0
  123.6944  104.0377  -46.7811 H   0  0  0  1  0  1  0  0  0  0  0  0
  125.7131   99.1944  -47.7819 H   0  0  0  1  0  1  0  0  0  0  0  0
  124.0363   98.7163  -47.3524 H   0  0  0  1  0  1  0  0  0  0  0  0
  126.2317  101.3668  -48.3748 H   0  0  0  1  0  1  0  0  0  0  0  0
  123.7270  109.6460  -43.0440 H   0  0  0  1  0  1  0  0  0  0  0  0
  122.8750  110.7760  -44.1500 H   0  0  0  1  0  1  0  0  0  0  0  0
  127.3320  103.1152  -49.7283 H   0  0  0  1  0  1  0  0  0  0  0  0
  124.7240  110.4720  -45.8050 H   0  0  0  1  0  1  0  0  0  0  0  0
  123.2560  112.4568  -42.7451 H   0  0  0  1  0  1  0  0  0  0  0  0
  122.6991  111.6974  -44.2739 H   0  0  0  1  0  1  0  0  0  0  0  0
  122.5211  113.4699  -44.0343 H   0  0  0  1  0  1  0  0  0  0  0  0
  124.9091  111.3153  -42.0965 H   0  0  0  1  0  1  0  0  0  0  0  0
  126.1662  112.5709  -42.3652 H   0  0  0  1  0  1  0  0  0  0  0  0
  127.1373  110.5261  -41.3587 H   0  0  0  1  0  1  0  0  0  0  0  0
  127.7853  110.8087  -43.0097 H   0  0  0  1  0  1  0  0  0  0  0  0
  126.5288  109.5535  -42.7409 H   0  0  0  1  0  1  0  0  0  0  0  0
  126.0690  108.9290  -43.5370 H   0  0  0  1  0  1  0  0  0  0  0  0
  126.8540  109.4330  -45.0720 H   0  0  0  1  0  1  0  0  0  0  0  0
  125.2990  108.0960  -46.3760 H   0  0  0  1  0  1  0  0  0  0  0  0
  126.0010  107.0580  -45.0890 H   0  0  0  1  0  1  0  0  0  0  0  0
  126.5629  103.5728  -52.0387 H   0  0  0  1  0  1  0  0  0  0  0  0
  124.6637  102.2749  -52.9762 H   0  0  0  1  0  1  0  0  0  0  0  0
  124.4286  112.9365  -45.5300 H   0  0  0  1  0  1  0  0  0  0  0  0
  124.9768  113.7244  -44.0112 H   0  0  0  1  0  1  0  0  0  0  0  0
  1 14  1  0  0  0  0
  1 15  1  0  0  0  0
  1 32  1  0  0  0  0
  2  8  1  0  0  0  0
  2  9  1  0  0  0  0
  2 25  1  0  0  0  0
  2 33  1  0  0  0  0
  3 20  1  0  0  0  0
  3 22  1  0  0  0  0
  3 28  1  0  0  0  0
  3 38  1  0  0  0  0
  4 15  2  0  0  0  0
  4 27  1  0  0  0  0
  4 31  1  0  0  0  0
  5  7  2  0  0  0  0
  5 10  1  0  0  0  0
  5 11  1  0  0  0  0
  6  8  1  0  0  0  0
  6 10  2  0  0  0  0
  6 16  1  0  0  0  0
  7 12  1  0  0  0  0
  7 35  1  0  0  0  0
  8 36  1  0  0  0  0
  8 37  1  0  0  0  0
  9 18  1  0  0  0  0
  9 39  1  0  0  0  0
  9 40  1  0  0  0  0
 10 41  1  0  0  0  0
 11 13  3  0  0  0  0
 12 16  2  0  0  0  0
 12 30  1  0  0  0  0
 13 14  1  0  0  0  0
 14 42  1  0  0  0  0
 14 43  1  0  0  0  0
 15 17  1  0  0  0  0
 16 29  1  0  0  0  0
 17 19  2  0  0  0  0
 17 44  1  0  0  0  0
 18 20  1  0  0  0  0
 18 45  1  0  0  0  0
 18 46  1  0  0  0  0
 19 26  1  0  0  0  0
 19 47  1  0  0  0  0
 20 24  1  0  0  0  0
 20 48  1  0  0  0  0
 21 28  1  0  0  0  0
 21 49  1  0  0  0  0
 21 50  1  0  0  0  0
 21 51  1  0  0  0  0
 22 23  1  0  0  0  0
 22 52  1  0  0  0  0
 22 53  1  0  0  0  0
 23 54  1  0  0  0  0
 23 55  1  0  0  0  0
 23 56  1  0  0  0  0
 24 25  1  0  0  0  0
 24 57  1  0  0  0  0
 24 58  1  0  0  0  0
 25 59  1  0  0  0  0
 25 60  1  0  0  0  0
 26 27  2  0  0  0  0
 26 61  1  0  0  0  0
 27 62  1  0  0  0  0
 28 63  1  0  0  0  0
 28 64  1  0  0  0  0
 29 34  1  0  0  0  0
M  END
> <ConfScore>
-0.528711 

$$$$
4agq


 64 66  0  0  0  0  0  0  0  0999 V2000
  124.2326   99.8365  -49.0893 N   0  0  0  1  0  3  0  0  0  0  0  0
  123.9580  107.6030  -44.7890 N   0  3  0  1  0  4  0  0  0  0  0  0
  125.4500  111.6190  -44.1530 N   0  3  0  1  0  4  0  0  0  0  0  0
  121.8906  100.2915  -48.5065 C   0  0  0  1  0  3  0  0  0  0  0  0
  124.4007  102.7364  -45.2146 C   0  0  0  1  0  3  0  0  0  0  0  0
  123.8758  105.0884  -44.9066 C   0  0  0  1  0  3  0  0  0  0  0  0
  124.7731  102.6426  -43.8665 C   0  0  0  1  0  3  0  0  0  0  0  0
  123.3850  106.3880  -45.4850 C   0  0  0  1  0  4  0  0  0  0  0  0
  122.9790  108.7410  -44.8490 C   0  0  0  1  0  4  0  0  0  0  0  0
  123.9646  103.9608  -45.7341 C   0  0  0  1  0  3  0  0  0  0  0  0
  124.4994  101.6071  -46.0833 C   0  0  0  1  0  2  0  0  0  0  0  0
  124.6964  103.7659  -43.0312 C   0  0  0  1  0  3  0  0  0  0  0  0
  124.5629  100.6886  -46.8550 C   0  0  0  1  0  2  0  0  0  0  0  0
  124.6644   99.5268  -47.7493 C   0  0  0  1  0  4  0  0  0  0  0  0
  122.9429  100.2217  -49.4240 C   0  0  0  1  0  3  0  0  0  0  0  0
  124.2427  104.9788  -43.5568 C   0  0  0  1  0  3  0  0  0  0  0  0
  122.6580  100.5588  -50.7550 C   0  0  0  1  0  3  0  0  0  0  0  0
  123.5670  109.9230  -44.0960 C   0  0  0  1  0  4  0  0  0  0  0  0
  121.3750  100.9533  -51.1504 C   0  0  0  1  0  3  0  0  0  0  0  0
  124.9010  110.3060  -44.7320 C   0  0  0  1  0  4  0  0  0  0  0  0
  125.1637  114.1076  -43.9526 C   0  0  0  1  0  4  0  0  0  0  0  0
  125.8040  111.5799  -42.6789 C   0  0  0  1  0  4  0  0  0  0  0  0
  126.8094  110.4731  -42.4126 C   0  0  0  1  0  4  0  0  0  0  0  0
  125.9010  109.1490  -44.6010 C   0  0  0  1  0  4  0  0  0  0  0  0
  125.3410  107.9150  -45.2920 C   0  0  0  1  0  4  0  0  0  0  0  0
  120.3454  101.0163  -50.2183 C   0  0  0  1  0  3  0  0  0  0  0  0
  120.6053  100.6890  -48.8888 C   0  0  0  1  0  3  0  0  0  0  0  0
  124.5315  112.8147  -44.4413 C   0  0  0  1  0  4  0  0  0  0  0  0
  124.1669  106.1027  -42.7646 O   0  0  0  1  0  2  0  0  0  0  0  0
  125.2263  103.6495  -40.9740 I   0  0  0  1  0  1  0  0  0  0  0  0
  122.0754  100.0298  -47.4703 H   0  0  0  1  0  1  0  0  0  0  0  0
  124.9261   99.7665  -49.8471 H   0  0  0  1  0  1  0  0  0  0  0  0
  124.0600  107.3680  -43.8140 H   0  0  0  1  0  1  0  0  0  0  0  0
  124.4427  105.8852  -41.8814 H   0  0  0  1  0  1  0  0  0  0  0  0
  125.1224  101.6977  -43.4676 H   0  0  0  1  0  1  0  0  0  0  0  0
  122.2887  106.4181  -45.3960 H   0  0  0  1  0  1  0  0  0  0  0  0
  123.6677  106.4274  -46.5468 H   0  0  0  1  0  1  0  0  0  0  0  0
  126.3137  111.7932  -44.6434 H   0  0  0  1  0  1  0  0  0  0  0  0
  122.0300  108.4400  -44.3820 H   0  0  0  1  0  1  0  0  0  0  0  0
  122.8000  109.0220  -45.8970 H   0  0  0  1  0  1  0  0  0  0  0  0
  123.6944  104.0377  -46.7811 H   0  0  0  1  0  1  0  0  0  0  0  0
  125.7131   99.1944  -47.7819 H   0  0  0  1  0  1  0  0  0  0  0  0
  124.0363   98.7163  -47.3524 H   0  0  0  1  0  1  0  0  0  0  0  0
  123.4503  100.5132  -51.4933 H   0  0  0  1  0  1  0  0  0  0  0  0
  123.7270  109.6460  -43.0440 H   0  0  0  1  0  1  0  0  0  0  0  0
  122.8750  110.7760  -44.1500 H   0  0  0  1  0  1  0  0  0  0  0  0
  121.1842  101.2095  -52.1856 H   0  0  0  1  0  1  0  0  0  0  0  0
  124.7240  110.4720  -45.8050 H   0  0  0  1  0  1  0  0  0  0  0  0
  126.1318  114.2539  -44.4536 H   0  0  0  1  0  1  0  0  0  0  0  0
  125.3200  114.0505  -42.8649 H   0  0  0  1  0  1  0  0  0  0  0  0
  124.4983  114.9524  -44.1848 H   0  0  0  1  0  1  0  0  0  0  0  0
  124.8935  111.3930  -42.0907 H   0  0  0  1  0  1  0  0  0  0  0  0
  126.2397  112.5466  -42.3835 H   0  0  0  1  0  1  0  0  0  0  0  0
  127.0588  110.4535  -41.3418 H   0  0  0  1  0  1  0  0  0  0  0  0
  127.7216  110.6576  -42.9984 H   0  0  0  1  0  1  0  0  0  0  0  0
  126.3760  109.5044  -42.7055 H   0  0  0  1  0  1  0  0  0  0  0  0
  126.0690  108.9290  -43.5370 H   0  0  0  1  0  1  0  0  0  0  0  0
  126.8540  109.4330  -45.0720 H   0  0  0  1  0  1  0  0  0  0  0  0
  125.2990  108.0960  -46.3760 H   0  0  0  1  0  1  0  0  0  0  0  0
  126.0010  107.0580  -45.0890 H   0  0  0  1  0  1  0  0  0  0  0  0
  119.3501  101.3183  -50.5232 H   0  0  0  1  0  1  0  0  0  0  0  0
  119.8121  100.7421  -48.1515 H   0  0  0  1  0  1  0  0  0  0  0  0
  123.5712  112.6647  -43.9257 H   0  0  0  1  0  1  0  0  0  0  0  0
  124.3583  112.8841  -45.5258 H   0  0  0  1  0  1  0  0  0  0  0  0
  1 14  1  0  0  0  0
  1 15  1  0  0  0  0
  1 32  1  0  0  0  0
  2  8  1  0  0  0  0
  2  9  1  0  0  0  0
  2 25  1  0  0  0  0
  2 33  1  0  0  0  0
  3 20  1  0  0  0  0
  3 22  1  0  0  0  0
  3 28  1  0  0  0  0
  3 38  1  0  0  0  0
  4 15  2  0  0  0  0
  4 27  1  0  0  0  0
  4 31  1  0  0  0  0
  5  7  2  0  0  0  0
  5 10  1  0  0  0  0
  5 11  1  0  0  0  0
  6  8  1  0  0  0  0
  6 10  2  0  0  0  0
  6 16  1  0  0  0  0
  7 12  1  0  0  0  0
  7 35  1  0  0  0  0
  8 36  1  0  0  0  0
  8 37  1  0  0  0  0
  9 18  1  0  0  0  0
  9 39  1  0  0  0  0
  9 40  1  0  0  0  0
 10 41  1  0  0  0  0
 11 13  3  0  0  0  0
 12 16  2  0  0  0  0
 12 30  1  0  0  0  0
 13 14  1  0  0  0  0
 14 42  1  0  0  0  0
 14 43  1  0  0  0  0
 15 17  1  0  0  0  0
 16 29  1  0  0  0  0
 17 19  2  0  0  0  0
 17 44  1  0  0  0  0
 18 20  1  0  0  0  0
 18 45  1  0  0  0  0
 18 46  1  0  0  0  0
 19 26  1  0  0  0  0
 19 47  1  0  0  0  0
 20 24  1  0  0  0  0
 20 48  1  0  0  0  0
 21 28  1  0  0  0  0
 21 49  1  0  0  0  0
 21 50  1  0  0  0  0
 21 51  1  0  0  0  0
 22 23  1  0  0  0  0
 22 52  1  0  0  0  0
 22 53  1  0  0  0  0
 23 54  1  0  0  0  0
 23 55  1  0  0  0  0
 23 56  1  0  0  0  0
 24 25  1  0  0  0  0
 24 57  1  0  0  0  0
 24 58  1  0  0  0  0
 25 59  1  0  0  0  0
 25 60  1  0  0  0  0
 26 27  2  0  0  0  0
 26 61  1  0  0  0  0
 27 62  1  0  0  0  0
 28 63  1  0  0  0  0
 28 64  1  0  0  0  0
 29 34  1  0  0  0  0
M  END
> <ConfScore>
-0.519245 

$$$$
4agq


 64 66  0  0  0  0  0  0  0  0999 V2000
    0.4530   -2.0284    6.8154 N   0  0  0  1  0  3  0  0  0  0  0  0
    2.5209    6.6299    6.3322 N   0  3  0  1  0  4  0  0  0  0  0  0
    1.3441    8.7890    9.1245 N   0  3  0  1  0  4  0  0  0  0  0  0
    2.8771   -1.6901    7.0172 C   0  0  0  1  0  3  0  0  0  0  0  0
    1.5599    2.0885    4.5182 C   0  0  0  1  0  3  0  0  0  0  0  0
    2.3266    4.2519    5.3146 C   0  0  0  1  0  3  0  0  0  0  0  0
    1.5594    2.5726    3.2027 C   0  0  0  1  0  3  0  0  0  0  0  0
    2.7438    5.1386    6.4710 C   0  0  0  1  0  4  0  0  0  0  0  0
    1.0783    6.9623    6.6507 C   0  0  0  1  0  4  0  0  0  0  0  0
    1.9317    2.9321    5.5715 C   0  0  0  1  0  3  0  0  0  0  0  0
    1.1442    0.7535    4.8090 C   0  0  0  1  0  2  0  0  0  0  0  0
    1.9445    3.8936    2.9345 C   0  0  0  1  0  3  0  0  0  0  0  0
    0.8045   -0.3597    5.1069 C   0  0  0  1  0  2  0  0  0  0  0  0
    0.3768   -1.7335    5.4065 C   0  0  0  1  0  4  0  0  0  0  0  0
    1.6241   -1.9929    7.5578 C   0  0  0  1  0  3  0  0  0  0  0  0
    2.3307    4.7212    3.9923 C   0  0  0  1  0  3  0  0  0  0  0  0
    1.5684   -2.2797    8.9292 C   0  0  0  1  0  3  0  0  0  0  0  0
    0.8308    8.4545    6.7078 C   0  0  0  1  0  4  0  0  0  0  0  0
    2.7177   -2.2601    9.7272 C   0  0  0  1  0  3  0  0  0  0  0  0
    1.7396    9.1749    7.6909 C   0  0  0  1  0  4  0  0  0  0  0  0
   -0.1893    9.2206   11.0682 C   0  0  0  1  0  4  0  0  0  0  0  0
    1.1784    7.3024    9.3738 C   0  0  0  1  0  4  0  0  0  0  0  0
   -0.0231    6.7755    8.6086 C   0  0  0  1  0  4  0  0  0  0  0  0
    3.1859    8.7850    7.4475 C   0  0  0  1  0  4  0  0  0  0  0  0
    3.3964    7.2849    7.3752 C   0  0  0  1  0  4  0  0  0  0  0  0
    3.9524   -1.9544    9.1660 C   0  0  0  1  0  3  0  0  0  0  0  0
    4.0321   -1.6627    7.8055 C   0  0  0  1  0  3  0  0  0  0  0  0
    0.1003    9.5453    9.6118 C   0  0  0  1  0  4  0  0  0  0  0  0
    2.7033    6.0269    3.7624 O   0  0  0  1  0  2  0  0  0  0  0  0
    1.9826    4.6497    0.9461 I   0  0  0  1  0  1  0  0  0  0  0  0
    2.9562   -1.4711    5.9579 H   0  0  0  1  0  1  0  0  0  0  0  0
   -0.4180   -2.2826    7.3021 H   0  0  0  1  0  1  0  0  0  0  0  0
    2.7338    6.9425    5.3977 H   0  0  0  1  0  1  0  0  0  0  0  0
    2.6605    6.2075    2.8301 H   0  0  0  1  0  1  0  0  0  0  0  0
    1.2596    1.9231    2.3889 H   0  0  0  1  0  1  0  0  0  0  0  0
    2.1860    4.8045    7.3586 H   0  0  0  1  0  1  0  0  0  0  0  0
    3.8198    4.9815    6.6332 H   0  0  0  1  0  1  0  0  0  0  0  0
    2.1105    9.0867    9.7084 H   0  0  0  1  0  1  0  0  0  0  0  0
    0.8218    6.5240    7.6261 H   0  0  0  1  0  1  0  0  0  0  0  0
    0.4352    6.5270    5.8721 H   0  0  0  1  0  1  0  0  0  0  0  0
    1.9141    2.5632    6.5908 H   0  0  0  1  0  1  0  0  0  0  0  0
   -0.6640   -1.8620    5.0724 H   0  0  0  1  0  1  0  0  0  0  0  0
    1.0249   -2.4347    4.8615 H   0  0  0  1  0  1  0  0  0  0  0  0
    0.6130   -2.5211    9.3807 H   0  0  0  1  0  1  0  0  0  0  0  0
   -0.2132    8.6243    7.0082 H   0  0  0  1  0  1  0  0  0  0  0  0
    0.9973    8.8749    5.7054 H   0  0  0  1  0  1  0  0  0  0  0  0
    2.6446   -2.4845   10.7845 H   0  0  0  1  0  1  0  0  0  0  0  0
    1.6289   10.2615    7.5593 H   0  0  0  1  0  1  0  0  0  0  0  0
    0.6785    9.4974   11.6844 H   0  0  0  1  0  1  0  0  0  0  0  0
   -0.3821    8.1423   11.1715 H   0  0  0  1  0  1  0  0  0  0  0  0
   -1.0723    9.7858   11.4018 H   0  0  0  1  0  1  0  0  0  0  0  0
    1.0292    7.1280   10.4496 H   0  0  0  1  0  1  0  0  0  0  0  0
    2.0840    6.7740    9.0386 H   0  0  0  1  0  1  0  0  0  0  0  0
   -0.1342    5.6977    8.7964 H   0  0  0  1  0  1  0  0  0  0  0  0
    0.1234    6.9472    7.5324 H   0  0  0  1  0  1  0  0  0  0  0  0
   -0.9311    7.3008    8.9428 H   0  0  0  1  0  1  0  0  0  0  0  0
    3.7982    9.1844    8.2686 H   0  0  0  1  0  1  0  0  0  0  0  0
    3.5125    9.2301    6.4957 H   0  0  0  1  0  1  0  0  0  0  0  0
    4.4494    7.0877    7.1266 H   0  0  0  1  0  1  0  0  0  0  0  0
    3.1628    6.8476    8.3578 H   0  0  0  1  0  1  0  0  0  0  0  0
    4.8444   -1.9421    9.7816 H   0  0  0  1  0  1  0  0  0  0  0  0
    4.9883   -1.4150    7.3585 H   0  0  0  1  0  1  0  0  0  0  0  0
   -0.7641    9.2521    8.9975 H   0  0  0  1  0  1  0  0  0  0  0  0
    0.2723   10.6274    9.5098 H   0  0  0  1  0  1  0  0  0  0  0  0
  1 14  1  0  0  0  0
  1 15  1  0  0  0  0
  1 32  1  0  0  0  0
  2  8  1  0  0  0  0
  2  9  1  0  0  0  0
  2 25  1  0  0  0  0
  2 33  1  0  0  0  0
  3 20  1  0  0  0  0
  3 22  1  0  0  0  0
  3 28  1  0  0  0  0
  3 38  1  0  0  0  0
  4 15  2  0  0  0  0
  4 27  1  0  0  0  0
  4 31  1  0  0  0  0
  5  7  2  0  0  0  0
  5 10  1  0  0  0  0
  5 11  1  0  0  0  0
  6  8  1  0  0  0  0
  6 10  2  0  0  0  0
  6 16  1  0  0  0  0
  7 12  1  0  0  0  0
  7 35  1  0  0  0  0
  8 36  1  0  0  0  0
  8 37  1  0  0  0  0
  9 18  1  0  0  0  0
  9 39  1  0  0  0  0
  9 40  1  0  0  0  0
 10 41  1  0  0  0  0
 11 13  3  0  0  0  0
 12 16  2  0  0  0  0
 12 30  1  0  0  0  0
 13 14  1  0  0  0  0
 14 42  1  0  0  0  0
 14 43  1  0  0  0  0
 15 17  1  0  0  0  0
 16 29  1  0  0  0  0
 17 19  2  0  0  0  0
 17 44  1  0  0  0  0
 18 20  1  0  0  0  0
 18 45  1  0  0  0  0
 18 46  1  0  0  0  0
 19 26  1  0  0  0  0
 19 47  1  0  0  0  0
 20 24  1  0  0  0  0
 20 48  1  0  0  0  0
 21 28  1  0  0  0  0
 21 49  1  0  0  0  0
 21 50  1  0  0  0  0
 21 51  1  0  0  0  0
 22 23  1  0  0  0  0
 22 52  1  0  0  0  0
 22 53  1  0  0  0  0
 23 54  1  0  0  0  0
 23 55  1  0  0  0  0
 23 56  1  0  0  0  0
 24 25  1  0  0  0  0
 24 57  1  0  0  0  0
 24 58  1  0  0  0  0
 25 59  1  0  0  0  0
 25 60  1  0  0  0  0
 26 27  2  0  0  0  0
 26 61  1  0  0  0  0
 27 62  1  0  0  0  0
 28 63  1  0  0  0  0
 28 64  1  0  0  0  0
 29 34  1  0  0  0  0
M  END
> <ConfScore>
-0.513687 

$$$$
4agq


 64 66  0  0  0  0  0  0  0  0999 V2000
  124.2326   99.8365  -49.0893 N   0  0  0  1  0  3  0  0  0  0  0  0
  123.9580  107.6030  -44.7890 N   0  3  0  1  0  4  0  0  0  0  0  0
  125.4500  111.6190  -44.1530 N   0  3  0  1  0  4  0  0  0  0  0  0
  122.5624  100.6153  -50.7127 C   0  0  0  1  0  3  0  0  0  0  0  0
  124.4007  102.7364  -45.2146 C   0  0  0  1  0  3  0  0  0  0  0  0
  123.8758  105.0884  -44.9066 C   0  0  0  1  0  3  0  0  0  0  0  0
  124.7731  102.6426  -43.8665 C   0  0  0  1  0  3  0  0  0  0  0  0
  123.3850  106.3880  -45.4850 C   0  0  0  1  0  4  0  0  0  0  0  0
  122.9790  108.7410  -44.8490 C   0  0  0  1  0  4  0  0  0  0  0  0
  123.9646  103.9608  -45.7341 C   0  0  0  1  0  3  0  0  0  0  0  0
  124.4994  101.6071  -46.0833 C   0  0  0  1  0  2  0  0  0  0  0  0
  124.6964  103.7659  -43.0312 C   0  0  0  1  0  3  0  0  0  0  0  0
  124.5629  100.6886  -46.8550 C   0  0  0  1  0  2  0  0  0  0  0  0
  124.6644   99.5268  -47.7493 C   0  0  0  1  0  4  0  0  0  0  0  0
  122.9535  100.2599  -49.4186 C   0  0  0  1  0  3  0  0  0  0  0  0
  124.2427  104.9788  -43.5568 C   0  0  0  1  0  3  0  0  0  0  0  0
  121.9855  100.3482  -48.4080 C   0  0  0  1  0  3  0  0  0  0  0  0
  123.5670  109.9230  -44.0960 C   0  0  0  1  0  4  0  0  0  0  0  0
  120.6797  100.7702  -48.6816 C   0  0  0  1  0  3  0  0  0  0  0  0
  124.9010  110.3060  -44.7320 C   0  0  0  1  0  4  0  0  0  0  0  0
  124.2735  112.9461  -45.9335 C   0  0  0  1  0  4  0  0  0  0  0  0
  125.8040  111.5799  -42.6789 C   0  0  0  1  0  4  0  0  0  0  0  0
  126.3345  112.9316  -42.2334 C   0  0  0  1  0  4  0  0  0  0  0  0
  125.9010  109.1490  -44.6010 C   0  0  0  1  0  4  0  0  0  0  0  0
  125.3410  107.9150  -45.2920 C   0  0  0  1  0  4  0  0  0  0  0  0
  120.3149  101.1169  -49.9776 C   0  0  0  1  0  3  0  0  0  0  0  0
  121.2591  101.0341  -50.9993 C   0  0  0  1  0  3  0  0  0  0  0  0
  124.5315  112.8147  -44.4413 C   0  0  0  1  0  4  0  0  0  0  0  0
  124.1669  106.1027  -42.7646 O   0  0  0  1  0  2  0  0  0  0  0  0
  125.2263  103.6495  -40.9740 I   0  0  0  1  0  1  0  0  0  0  0  0
  123.2892  100.5658  -51.5163 H   0  0  0  1  0  1  0  0  0  0  0  0
  124.9176   99.7362  -49.8514 H   0  0  0  1  0  1  0  0  0  0  0  0
  124.0600  107.3680  -43.8140 H   0  0  0  1  0  1  0  0  0  0  0  0
  124.4427  105.8852  -41.8814 H   0  0  0  1  0  1  0  0  0  0  0  0
  125.1224  101.6977  -43.4676 H   0  0  0  1  0  1  0  0  0  0  0  0
  122.2887  106.4181  -45.3960 H   0  0  0  1  0  1  0  0  0  0  0  0
  123.6677  106.4274  -46.5468 H   0  0  0  1  0  1  0  0  0  0  0  0
  126.3137  111.7932  -44.6434 H   0  0  0  1  0  1  0  0  0  0  0  0
  122.0300  108.4400  -44.3820 H   0  0  0  1  0  1  0  0  0  0  0  0
  122.8000  109.0220  -45.8970 H   0  0  0  1  0  1  0  0  0  0  0  0
  123.6944  104.0377  -46.7811 H   0  0  0  1  0  1  0  0  0  0  0  0
  125.7131   99.1944  -47.7819 H   0  0  0  1  0  1  0  0  0  0  0  0
  124.0363   98.7163  -47.3524 H   0  0  0  1  0  1  0  0  0  0  0  0
  122.2555  100.0825  -47.3924 H   0  0  0  1  0  1  0  0  0  0  0  0
  123.7270  109.6460  -43.0440 H   0  0  0  1  0  1  0  0  0  0  0  0
  122.8750  110.7760  -44.1500 H   0  0  0  1  0  1  0  0  0  0  0  0
  119.9520  100.8275  -47.8810 H   0  0  0  1  0  1  0  0  0  0  0  0
  124.7240  110.4720  -45.8050 H   0  0  0  1  0  1  0  0  0  0  0  0
  123.8084  112.0222  -46.3072 H   0  0  0  1  0  1  0  0  0  0  0  0
  125.2270  113.1128  -46.4567 H   0  0  0  1  0  1  0  0  0  0  0  0
  123.5999  113.7966  -46.1161 H   0  0  0  1  0  1  0  0  0  0  0  0
  126.5745  110.8133  -42.5097 H   0  0  0  1  0  1  0  0  0  0  0  0
  124.9045  111.3313  -42.0951 H   0  0  0  1  0  1  0  0  0  0  0  0
  126.5881  112.8921  -41.1642 H   0  0  0  1  0  1  0  0  0  0  0  0
  125.5660  113.7002  -42.4002 H   0  0  0  1  0  1  0  0  0  0  0  0
  127.2354  113.1825  -42.8144 H   0  0  0  1  0  1  0  0  0  0  0  0
  126.0690  108.9290  -43.5370 H   0  0  0  1  0  1  0  0  0  0  0  0
  126.8540  109.4330  -45.0720 H   0  0  0  1  0  1  0  0  0  0  0  0
  125.2990  108.0960  -46.3760 H   0  0  0  1  0  1  0  0  0  0  0  0
  126.0010  107.0580  -45.0890 H   0  0  0  1  0  1  0  0  0  0  0  0
  119.3050  101.4474  -50.1910 H   0  0  0  1  0  1  0  0  0  0  0  0
  120.9839  101.2941  -52.0153 H   0  0  0  1  0  1  0  0  0  0  0  0
  125.0112  113.7348  -44.0753 H   0  0  0  1  0  1  0  0  0  0  0  0
  123.5735  112.6684  -43.9200 H   0  0  0  1  0  1  0  0  0  0  0  0
  1 14  1  0  0  0  0
  1 15  1  0  0  0  0
  1 32  1  0  0  0  0
  2  8  1  0  0  0  0
  2  9  1  0  0  0  0
  2 25  1  0  0  0  0
  2 33  1  0  0  0  0
  3 20  1  0  0  0  0
  3 22  1  0  0  0  0
  3 28  1  0  0  0  0
  3 38  1  0  0  0  0
  4 15  2  0  0  0  0
  4 27  1  0  0  0  0
  4 31  1  0  0  0  0
  5  7  2  0  0  0  0
  5 10  1  0  0  0  0
  5 11  1  0  0  0  0
  6  8  1  0  0  0  0
  6 10  2  0  0  0  0
  6 16  1  0  0  0  0
  7 12  1  0  0  0  0
  7 35  1  0  0  0  0
  8 36  1  0  0  0  0
  8 37  1  0  0  0  0
  9 18  1  0  0  0  0
  9 39  1  0  0  0  0
  9 40  1  0  0  0  0
 10 41  1  0  0  0  0
 11 13  3  0  0  0  0
 12 16  2  0  0  0  0
 12 30  1  0  0  0  0
 13 14  1  0  0  0  0
 14 42  1  0  0  0  0
 14 43  1  0  0  0  0
 15 17  1  0  0  0  0
 16 29  1  0  0  0  0
 17 19  2  0  0  0  0
 17 44  1  0  0  0  0
 18 20  1  0  0  0  0
 18 45  1  0  0  0  0
 18 46  1  0  0  0  0
 19 26  1  0  0  0  0
 19 47  1  0  0  0  0
 20 24  1  0  0  0  0
 20 48  1  0  0  0  0
 21 28  1  0  0  0  0
 21 49  1  0  0  0  0
 21 50  1  0  0  0  0
 21 51  1  0  0  0  0
 22 23  1  0  0  0  0
 22 52  1  0  0  0  0
 22 53  1  0  0  0  0
 23 54  1  0  0  0  0
 23 55  1  0  0  0  0
 23 56  1  0  0  0  0
 24 25  1  0  0  0  0
 24 57  1  0  0  0  0
 24 58  1  0  0  0  0
 25 59  1  0  0  0  0
 25 60  1  0  0  0  0
 26 27  2  0  0  0  0
 26 61  1  0  0  0  0
 27 62  1  0  0  0  0
 28 63  1  0  0  0  0
 28 64  1  0  0  0  0
 29 34  1  0  0  0  0
M  END
> <ConfScore>
-0.513591 

$$$$
4agq


 64 66  0  0  0  0  0  0  0  0999 V2000
    0.4530   -2.0284    6.8154 N   0  0  0  1  0  3  0  0  0  0  0  0
    2.5209    6.6299    6.3322 N   0  3  0  1  0  4  0  0  0  0  0  0
    1.3441    8.7890    9.1245 N   0  3  0  1  0  4  0  0  0  0  0  0
    2.8771   -1.6901    7.0172 C   0  0  0  1  0  3  0  0  0  0  0  0
    1.5599    2.0885    4.5182 C   0  0  0  1  0  3  0  0  0  0  0  0
    2.3266    4.2519    5.3146 C   0  0  0  1  0  3  0  0  0  0  0  0
    1.5594    2.5726    3.2027 C   0  0  0  1  0  3  0  0  0  0  0  0
    2.7438    5.1386    6.4710 C   0  0  0  1  0  4  0  0  0  0  0  0
    1.0783    6.9623    6.6507 C   0  0  0  1  0  4  0  0  0  0  0  0
    1.9317    2.9321    5.5715 C   0  0  0  1  0  3  0  0  0  0  0  0
    1.1442    0.7535    4.8090 C   0  0  0  1  0  2  0  0  0  0  0  0
    1.9445    3.8936    2.9345 C   0  0  0  1  0  3  0  0  0  0  0  0
    0.8045   -0.3597    5.1069 C   0  0  0  1  0  2  0  0  0  0  0  0
    0.3768   -1.7335    5.4065 C   0  0  0  1  0  4  0  0  0  0  0  0
    1.6241   -1.9929    7.5578 C   0  0  0  1  0  3  0  0  0  0  0  0
    2.3307    4.7212    3.9923 C   0  0  0  1  0  3  0  0  0  0  0  0
    1.5684   -2.2797    8.9292 C   0  0  0  1  0  3  0  0  0  0  0  0
    0.8308    8.4545    6.7078 C   0  0  0  1  0  4  0  0  0  0  0  0
    2.7177   -2.2601    9.7272 C   0  0  0  1  0  3  0  0  0  0  0  0
    1.7396    9.1749    7.6909 C   0  0  0  1  0  4  0  0  0  0  0  0
    0.2605   11.0407    9.3916 C   0  0  0  1  0  4  0  0  0  0  0  0
    1.1784    7.3024    9.3738 C   0  0  0  1  0  4  0  0  0  0  0  0
    0.7914    7.0557   10.8216 C   0  0  0  1  0  4  0  0  0  0  0  0
    3.1859    8.7850    7.4475 C   0  0  0  1  0  4  0  0  0  0  0  0
    3.3964    7.2849    7.3752 C   0  0  0  1  0  4  0  0  0  0  0  0
    3.9524   -1.9544    9.1660 C   0  0  0  1  0  3  0  0  0  0  0  0
    4.0321   -1.6627    7.8055 C   0  0  0  1  0  3  0  0  0  0  0  0
    0.1003    9.5453    9.6118 C   0  0  0  1  0  4  0  0  0  0  0  0
    2.7033    6.0269    3.7624 O   0  0  0  1  0  2  0  0  0  0  0  0
    1.9826    4.6497    0.9461 I   0  0  0  1  0  1  0  0  0  0  0  0
    2.9562   -1.4711    5.9579 H   0  0  0  1  0  1  0  0  0  0  0  0
   -0.4180   -2.2826    7.3021 H   0  0  0  1  0  1  0  0  0  0  0  0
    2.7338    6.9425    5.3977 H   0  0  0  1  0  1  0  0  0  0  0  0
    2.6605    6.2075    2.8301 H   0  0  0  1  0  1  0  0  0  0  0  0
    1.2596    1.9231    2.3889 H   0  0  0  1  0  1  0  0  0  0  0  0
    2.1860    4.8045    7.3586 H   0  0  0  1  0  1  0  0  0  0  0  0
    3.8198    4.9815    6.6332 H   0  0  0  1  0  1  0  0  0  0  0  0
    2.1105    9.0867    9.7084 H   0  0  0  1  0  1  0  0  0  0  0  0
    0.8218    6.5240    7.6261 H   0  0  0  1  0  1  0  0  0  0  0  0
    0.4352    6.5270    5.8721 H   0  0  0  1  0  1  0  0  0  0  0  0
    1.9141    2.5632    6.5908 H   0  0  0  1  0  1  0  0  0  0  0  0
   -0.6640   -1.8620    5.0724 H   0  0  0  1  0  1  0  0  0  0  0  0
    1.0249   -2.4347    4.8615 H   0  0  0  1  0  1  0  0  0  0  0  0
    0.6130   -2.5211    9.3807 H   0  0  0  1  0  1  0  0  0  0  0  0
   -0.2132    8.6243    7.0082 H   0  0  0  1  0  1  0  0  0  0  0  0
    0.9973    8.8749    5.7054 H   0  0  0  1  0  1  0  0  0  0  0  0
    2.6446   -2.4845   10.7845 H   0  0  0  1  0  1  0  0  0  0  0  0
    1.6289   10.2615    7.5593 H   0  0  0  1  0  1  0  0  0  0  0  0
    0.4193   11.2381    8.3214 H   0  0  0  1  0  1  0  0  0  0  0  0
    1.1279   11.4041    9.9629 H   0  0  0  1  0  1  0  0  0  0  0  0
   -0.6476   11.5611    9.7306 H   0  0  0  1  0  1  0  0  0  0  0  0
    2.1273    6.7892    9.1588 H   0  0  0  1  0  1  0  0  0  0  0  0
    0.3904    6.9083    8.7139 H   0  0  0  1  0  1  0  0  0  0  0  0
    0.6742    5.9756   10.9914 H   0  0  0  1  0  1  0  0  0  0  0  0
   -0.1577    7.5665   11.0396 H   0  0  0  1  0  1  0  0  0  0  0  0
    1.5785    7.4473   11.4844 H   0  0  0  1  0  1  0  0  0  0  0  0
    3.7982    9.1844    8.2686 H   0  0  0  1  0  1  0  0  0  0  0  0
    3.5125    9.2301    6.4957 H   0  0  0  1  0  1  0  0  0  0  0  0
    4.4494    7.0877    7.1266 H   0  0  0  1  0  1  0  0  0  0  0  0
    3.1628    6.8476    8.3578 H   0  0  0  1  0  1  0  0  0  0  0  0
    4.8444   -1.9421    9.7816 H   0  0  0  1  0  1  0  0  0  0  0  0
    4.9883   -1.4150    7.3585 H   0  0  0  1  0  1  0  0  0  0  0  0
   -0.0423    9.3516   10.6855 H   0  0  0  1  0  1  0  0  0  0  0  0
   -0.7799    9.1900    9.0552 H   0  0  0  1  0  1  0  0  0  0  0  0
  1 14  1  0  0  0  0
  1 15  1  0  0  0  0
  1 32  1  0  0  0  0
  2  8  1  0  0  0  0
  2  9  1  0  0  0  0
  2 25  1  0  0  0  0
  2 33  1  0  0  0  0
  3 20  1  0  0  0  0
  3 22  1  0  0  0  0
  3 28  1  0  0  0  0
  3 38  1  0  0  0  0
  4 15  2  0  0  0  0
  4 27  1  0  0  0  0
  4 31  1  0  0  0  0
  5  7  2  0  0  0  0
  5 10  1  0  0  0  0
  5 11  1  0  0  0  0
  6  8  1  0  0  0  0
  6 10  2  0  0  0  0
  6 16  1  0  0  0  0
  7 12  1  0  0  0  0
  7 35  1  0  0  0  0
  8 36  1  0  0  0  0
  8 37  1  0  0  0  0
  9 18  1  0  0  0  0
  9 39  1  0  0  0  0
  9 40  1  0  0  0  0
 10 41  1  0  0  0  0
 11 13  3  0  0  0  0
 12 16  2  0  0  0  0
 12 30  1  0  0  0  0
 13 14  1  0  0  0  0
 14 42  1  0  0  0  0
 14 43  1  0  0  0  0
 15 17  1  0  0  0  0
 16 29  1  0  0  0  0
 17 19  2  0  0  0  0
 17 44  1  0  0  0  0
 18 20  1  0  0  0  0
 18 45  1  0  0  0  0
 18 46  1  0  0  0  0
 19 26  1  0  0  0  0
 19 47  1  0  0  0  0
 20 24  1  0  0  0  0
 20 48  1  0  0  0  0
 21 28  1  0  0  0  0
 21 49  1  0  0  0  0
 21 50  1  0  0  0  0
 21 51  1  0  0  0  0
 22 23  1  0  0  0  0
 22 52  1  0  0  0  0
 22 53  1  0  0  0  0
 23 54  1  0  0  0  0
 23 55  1  0  0  0  0
 23 56  1  0  0  0  0
 24 25  1  0  0  0  0
 24 57  1  0  0  0  0
 24 58  1  0  0  0  0
 25 59  1  0  0  0  0
 25 60  1  0  0  0  0
 26 27  2  0  0  0  0
 26 61  1  0  0  0  0
 27 62  1  0  0  0  0
 28 63  1  0  0  0  0
 28 64  1  0  0  0  0
 29 34  1  0  0  0  0
M  END
> <ConfScore>
-0.512336 

$$$$
4agq


 64 66  0  0  0  0  0  0  0  0999 V2000
  124.2326   99.8365  -49.0893 N   0  0  0  1  0  3  0  0  0  0  0  0
  123.9580  107.6030  -44.7890 N   0  3  0  1  0  4  0  0  0  0  0  0
  125.4500  111.6190  -44.1530 N   0  3  0  1  0  4  0  0  0  0  0  0
  121.8446   99.4222  -48.6925 C   0  0  0  1  0  3  0  0  0  0  0  0
  124.4007  102.7364  -45.2146 C   0  0  0  1  0  3  0  0  0  0  0  0
  123.8758  105.0884  -44.9066 C   0  0  0  1  0  3  0  0  0  0  0  0
  124.7731  102.6426  -43.8665 C   0  0  0  1  0  3  0  0  0  0  0  0
  123.3850  106.3880  -45.4850 C   0  0  0  1  0  4  0  0  0  0  0  0
  122.9790  108.7410  -44.8490 C   0  0  0  1  0  4  0  0  0  0  0  0
  123.9646  103.9608  -45.7341 C   0  0  0  1  0  3  0  0  0  0  0  0
  124.4994  101.6071  -46.0833 C   0  0  0  1  0  2  0  0  0  0  0  0
  124.6964  103.7659  -43.0312 C   0  0  0  1  0  3  0  0  0  0  0  0
  124.5629  100.6886  -46.8550 C   0  0  0  1  0  2  0  0  0  0  0  0
  124.6644   99.5268  -47.7493 C   0  0  0  1  0  4  0  0  0  0  0  0
  122.9104   99.8136  -49.5079 C   0  0  0  1  0  3  0  0  0  0  0  0
  124.2427  104.9788  -43.5568 C   0  0  0  1  0  3  0  0  0  0  0  0
  122.6069  100.1962  -50.8223 C   0  0  0  1  0  3  0  0  0  0  0  0
  123.5670  109.9230  -44.0960 C   0  0  0  1  0  4  0  0  0  0  0  0
  121.2915  100.1915  -51.2995 C   0  0  0  1  0  3  0  0  0  0  0  0
  124.9010  110.3060  -44.7320 C   0  0  0  1  0  4  0  0  0  0  0  0
  124.2266  112.9116  -45.9273 C   0  0  0  1  0  4  0  0  0  0  0  0
  125.8040  111.5799  -42.6789 C   0  0  0  1  0  4  0  0  0  0  0  0
  126.8094  110.4731  -42.4126 C   0  0  0  1  0  4  0  0  0  0  0  0
  125.9010  109.1490  -44.6010 C   0  0  0  1  0  4  0  0  0  0  0  0
  125.3410  107.9150  -45.2920 C   0  0  0  1  0  4  0  0  0  0  0  0
  120.2484   99.7994  -50.4683 C   0  0  0  1  0  3  0  0  0  0  0  0
  120.5252   99.4180  -49.1567 C   0  0  0  1  0  3  0  0  0  0  0  0
  124.5315  112.8147  -44.4413 C   0  0  0  1  0  4  0  0  0  0  0  0
  124.1669  106.1027  -42.7646 O   0  0  0  1  0  2  0  0  0  0  0  0
  125.2263  103.6495  -40.9740 I   0  0  0  1  0  1  0  0  0  0  0  0
  122.0459   99.1129  -47.6727 H   0  0  0  1  0  1  0  0  0  0  0  0
  124.9521  100.0904  -49.7806 H   0  0  0  1  0  1  0  0  0  0  0  0
  124.0600  107.3680  -43.8140 H   0  0  0  1  0  1  0  0  0  0  0  0
  124.4427  105.8852  -41.8814 H   0  0  0  1  0  1  0  0  0  0  0  0
  125.1224  101.6977  -43.4676 H   0  0  0  1  0  1  0  0  0  0  0  0
  122.2887  106.4181  -45.3960 H   0  0  0  1  0  1  0  0  0  0  0  0
  123.6677  106.4274  -46.5468 H   0  0  0  1  0  1  0  0  0  0  0  0
  126.3137  111.7932  -44.6434 H   0  0  0  1  0  1  0  0  0  0  0  0
  122.0300  108.4400  -44.3820 H   0  0  0  1  0  1  0  0  0  0  0  0
  122.8000  109.0220  -45.8970 H   0  0  0  1  0  1  0  0  0  0  0  0
  123.6944  104.0377  -46.7811 H   0  0  0  1  0  1  0  0  0  0  0  0
  125.7131   99.1944  -47.7819 H   0  0  0  1  0  1  0  0  0  0  0  0
  124.0363   98.7163  -47.3524 H   0  0  0  1  0  1  0  0  0  0  0  0
  123.4099  100.5031  -51.4826 H   0  0  0  1  0  1  0  0  0  0  0  0
  123.7270  109.6460  -43.0440 H   0  0  0  1  0  1  0  0  0  0  0  0
  122.8750  110.7760  -44.1500 H   0  0  0  1  0  1  0  0  0  0  0  0
  121.0863  100.4935  -52.3196 H   0  0  0  1  0  1  0  0  0  0  0  0
  124.7240  110.4720  -45.8050 H   0  0  0  1  0  1  0  0  0  0  0  0
  123.7430  111.9826  -46.2629 H   0  0  0  1  0  1  0  0  0  0  0  0
  125.1640  113.0577  -46.4846 H   0  0  0  1  0  1  0  0  0  0  0  0
  123.5538  113.7628  -46.1092 H   0  0  0  1  0  1  0  0  0  0  0  0
  124.8935  111.3930  -42.0907 H   0  0  0  1  0  1  0  0  0  0  0  0
  126.2397  112.5466  -42.3835 H   0  0  0  1  0  1  0  0  0  0  0  0
  127.0588  110.4535  -41.3418 H   0  0  0  1  0  1  0  0  0  0  0  0
  127.7216  110.6576  -42.9984 H   0  0  0  1  0  1  0  0  0  0  0  0
  126.3760  109.5044  -42.7055 H   0  0  0  1  0  1  0  0  0  0  0  0
  126.0690  108.9290  -43.5370 H   0  0  0  1  0  1  0  0  0  0  0  0
  126.8540  109.4330  -45.0720 H   0  0  0  1  0  1  0  0  0  0  0  0
  125.2990  108.0960  -46.3760 H   0  0  0  1  0  1  0  0  0  0  0  0
  126.0010  107.0580  -45.0890 H   0  0  0  1  0  1  0  0  0  0  0  0
  119.2292   99.7917  -50.8370 H   0  0  0  1  0  1  0  0  0  0  0  0
  119.7189   99.1180  -48.4969 H   0  0  0  1  0  1  0  0  0  0  0  0
  125.0295  113.7395  -44.1137 H   0  0  0  1  0  1  0  0  0  0  0  0
  123.5897  112.6890  -43.8862 H   0  0  0  1  0  1  0  0  0  0  0  0
  1 14  1  0  0  0  0
  1 15  1  0  0  0  0
  1 32  1  0  0  0  0
  2  8  1  0  0  0  0
  2  9  1  0  0  0  0
  2 25  1  0  0  0  0
  2 33  1  0  0  0  0
  3 20  1  0  0  0  0
  3 22  1  0  0  0  0
  3 28  1  0  0  0  0
  3 38  1  0  0  0  0
  4 15  2  0  0  0  0
  4 27  1  0  0  0  0
  4 31  1  0  0  0  0
  5  7  2  0  0  0  0
  5 10  1  0  0  0  0
  5 11  1  0  0  0  0
  6  8  1  0  0  0  0
  6 10  2  0  0  0  0
  6 16  1  0  0  0  0
  7 12  1  0  0  0  0
  7 35  1  0  0  0  0
  8 36  1  0  0  0  0
  8 37  1  0  0  0  0
  9 18  1  0  0  0  0
  9 39  1  0  0  0  0
  9 40  1  0  0  0  0
 10 41  1  0  0  0  0
 11 13  3  0  0  0  0
 12 16  2  0  0  0  0
 12 30  1  0  0  0  0
 13 14  1  0  0  0  0
 14 42  1  0  0  0  0
 14 43  1  0  0  0  0
 15 17  1  0  0  0  0
 16 29  1  0  0  0  0
 17 19  2  0  0  0  0
 17 44  1  0  0  0  0
 18 20  1  0  0  0  0
 18 45  1  0  0  0  0
 18 46  1  0  0  0  0
 19 26  1  0  0  0  0
 19 47  1  0  0  0  0
 20 24  1  0  0  0  0
 20 48  1  0  0  0  0
 21 28  1  0  0  0  0
 21 49  1  0  0  0  0
 21 50  1  0  0  0  0
 21 51  1  0  0  0  0
 22 23  1  0  0  0  0
 22 52  1  0  0  0  0
 22 53  1  0  0  0  0
 23 54  1  0  0  0  0
 23 55  1  0  0  0  0
 23 56  1  0  0  0  0
 24 25  1  0  0  0  0
 24 57  1  0  0  0  0
 24 58  1  0  0  0  0
 25 59  1  0  0  0  0
 25 60  1  0  0  0  0
 26 27  2  0  0  0  0
 26 61  1  0  0  0  0
 27 62  1  0  0  0  0
 28 63  1  0  0  0  0
 28 64  1  0  0  0  0
 29 34  1  0  0  0  0
M  END
> <ConfScore>
-0.511973 

$$$$
4agq


 64 66  0  0  0  0  0  0  0  0999 V2000
  123.4395  100.9857  -40.2463 N   0  0  0  1  0  3  0  0  0  0  0  0
  123.9580  107.6030  -44.7890 N   0  3  0  1  0  4  0  0  0  0  0  0
  125.4500  111.6190  -44.1530 N   0  3  0  1  0  4  0  0  0  0  0  0
  121.5932  100.7065  -41.8414 C   0  0  0  1  0  3  0  0  0  0  0  0
  125.0042  103.1704  -44.2749 C   0  0  0  1  0  3  0  0  0  0  0  0
  124.2920  105.1887  -45.4244 C   0  0  0  1  0  3  0  0  0  0  0  0
  125.9706  102.9469  -45.2654 C   0  0  0  1  0  3  0  0  0  0  0  0
  123.3850  106.3880  -45.4850 C   0  0  0  1  0  4  0  0  0  0  0  0
  122.9790  108.7410  -44.8490 C   0  0  0  1  0  4  0  0  0  0  0  0
  124.1598  104.2833  -44.3629 C   0  0  0  1  0  3  0  0  0  0  0  0
  124.8367  102.2533  -43.1930 C   0  0  0  1  0  2  0  0  0  0  0  0
  126.1064  103.8414  -46.3364 C   0  0  0  1  0  3  0  0  0  0  0  0
  124.6556  101.5141  -42.2635 C   0  0  0  1  0  2  0  0  0  0  0  0
  124.4830  100.5705  -41.1500 C   0  0  0  1  0  4  0  0  0  0  0  0
  122.0957  101.0513  -40.5834 C   0  0  0  1  0  3  0  0  0  0  0  0
  125.2695  104.9586  -46.4042 C   0  0  0  1  0  3  0  0  0  0  0  0
  121.1745  101.4914  -39.6222 C   0  0  0  1  0  3  0  0  0  0  0  0
  123.5670  109.9230  -44.0960 C   0  0  0  1  0  4  0  0  0  0  0  0
  119.8072  101.5789  -39.9066 C   0  0  0  1  0  3  0  0  0  0  0  0
  124.9010  110.3060  -44.7320 C   0  0  0  1  0  4  0  0  0  0  0  0
  125.1637  114.1076  -43.9526 C   0  0  0  1  0  4  0  0  0  0  0  0
  125.8040  111.5799  -42.6789 C   0  0  0  1  0  4  0  0  0  0  0  0
  126.8886  110.5464  -42.4297 C   0  0  0  1  0  4  0  0  0  0  0  0
  125.9010  109.1490  -44.6010 C   0  0  0  1  0  4  0  0  0  0  0  0
  125.3410  107.9150  -45.2920 C   0  0  0  1  0  4  0  0  0  0  0  0
  119.3318  101.2286  -41.1653 C   0  0  0  1  0  3  0  0  0  0  0  0
  120.2282  100.7852  -42.1360 C   0  0  0  1  0  3  0  0  0  0  0  0
  124.5315  112.8147  -44.4413 C   0  0  0  1  0  4  0  0  0  0  0  0
  125.3708  105.8493  -47.4496 O   0  0  0  1  0  2  0  0  0  0  0  0
  127.5826  103.5465  -47.8399 I   0  0  0  1  0  1  0  0  0  0  0  0
  122.2801  100.3695  -42.6101 H   0  0  0  1  0  1  0  0  0  0  0  0
  123.7092  101.2515  -39.2888 H   0  0  0  1  0  1  0  0  0  0  0  0
  124.0600  107.3680  -43.8140 H   0  0  0  1  0  1  0  0  0  0  0  0
  126.0684  105.5728  -48.0330 H   0  0  0  1  0  1  0  0  0  0  0  0
  126.6158  102.0787  -45.2037 H   0  0  0  1  0  1  0  0  0  0  0  0
  122.4294  106.1280  -45.0054 H   0  0  0  1  0  1  0  0  0  0  0  0
  123.2086  106.6403  -46.5405 H   0  0  0  1  0  1  0  0  0  0  0  0
  126.3137  111.7932  -44.6434 H   0  0  0  1  0  1  0  0  0  0  0  0
  122.0300  108.4400  -44.3820 H   0  0  0  1  0  1  0  0  0  0  0  0
  122.8000  109.0220  -45.8970 H   0  0  0  1  0  1  0  0  0  0  0  0
  123.4001  104.4459  -43.6068 H   0  0  0  1  0  1  0  0  0  0  0  0
  124.2258   99.5817  -41.5593 H   0  0  0  1  0  1  0  0  0  0  0  0
  125.4282  100.5009  -40.5928 H   0  0  0  1  0  1  0  0  0  0  0  0
  121.5304  101.7693  -38.6368 H   0  0  0  1  0  1  0  0  0  0  0  0
  123.7270  109.6460  -43.0440 H   0  0  0  1  0  1  0  0  0  0  0  0
  122.8750  110.7760  -44.1500 H   0  0  0  1  0  1  0  0  0  0  0  0
  119.1181  101.9211  -39.1439 H   0  0  0  1  0  1  0  0  0  0  0  0
  124.7240  110.4720  -45.8050 H   0  0  0  1  0  1  0  0  0  0  0  0
  126.1318  114.2539  -44.4536 H   0  0  0  1  0  1  0  0  0  0  0  0
  125.3200  114.0505  -42.8649 H   0  0  0  1  0  1  0  0  0  0  0  0
  124.4983  114.9524  -44.1848 H   0  0  0  1  0  1  0  0  0  0  0  0
  124.9091  111.3153  -42.0965 H   0  0  0  1  0  1  0  0  0  0  0  0
  126.1662  112.5709  -42.3652 H   0  0  0  1  0  1  0  0  0  0  0  0
  127.1373  110.5261  -41.3587 H   0  0  0  1  0  1  0  0  0  0  0  0
  127.7853  110.8087  -43.0097 H   0  0  0  1  0  1  0  0  0  0  0  0
  126.5288  109.5535  -42.7409 H   0  0  0  1  0  1  0  0  0  0  0  0
  126.0690  108.9290  -43.5370 H   0  0  0  1  0  1  0  0  0  0  0  0
  126.8540  109.4330  -45.0720 H   0  0  0  1  0  1  0  0  0  0  0  0
  125.2990  108.0960  -46.3760 H   0  0  0  1  0  1  0  0  0  0  0  0
  126.0010  107.0580  -45.0890 H   0  0  0  1  0  1  0  0  0  0  0  0
  118.2736  101.2989  -41.3887 H   0  0  0  1  0  1  0  0  0  0  0  0
  119.8680  100.5016  -43.1186 H   0  0  0  1  0  1  0  0  0  0  0  0
  123.5712  112.6647  -43.9257 H   0  0  0  1  0  1  0  0  0  0  0  0
  124.3583  112.8841  -45.5258 H   0  0  0  1  0  1  0  0  0  0  0  0
  1 14  1  0  0  0  0
  1 15  1  0  0  0  0
  1 32  1  0  0  0  0
  2  8  1  0  0  0  0
  2  9  1  0  0  0  0
  2 25  1  0  0  0  0
  2 33  1  0  0  0  0
  3 20  1  0  0  0  0
  3 22  1  0  0  0  0
  3 28  1  0  0  0  0
  3 38  1  0  0  0  0
  4 15  2  0  0  0  0
  4 27  1  0  0  0  0
  4 31  1  0  0  0  0
  5  7  2  0  0  0  0
  5 10  1  0  0  0  0
  5 11  1  0  0  0  0
  6  8  1  0  0  0  0
  6 10  2  0  0  0  0
  6 16  1  0  0  0  0
  7 12  1  0  0  0  0
  7 35  1  0  0  0  0
  8 36  1  0  0  0  0
  8 37  1  0  0  0  0
  9 18  1  0  0  0  0
  9 39  1  0  0  0  0
  9 40  1  0  0  0  0
 10 41  1  0  0  0  0
 11 13  3  0  0  0  0
 12 16  2  0  0  0  0
 12 30  1  0  0  0  0
 13 14  1  0  0  0  0
 14 42  1  0  0  0  0
 14 43  1  0  0  0  0
 15 17  1  0  0  0  0
 16 29  1  0  0  0  0
 17 19  2  0  0  0  0
 17 44  1  0  0  0  0
 18 20  1  0  0  0  0
 18 45  1  0  0  0  0
 18 46  1  0  0  0  0
 19 26  1  0  0  0  0
 19 47  1  0  0  0  0
 20 24  1  0  0  0  0
 20 48  1  0  0  0  0
 21 28  1  0  0  0  0
 21 49  1  0  0  0  0
 21 50  1  0  0  0  0
 21 51  1  0  0  0  0
 22 23  1  0  0  0  0
 22 52  1  0  0  0  0
 22 53  1  0  0  0  0
 23 54  1  0  0  0  0
 23 55  1  0  0  0  0
 23 56  1  0  0  0  0
 24 25  1  0  0  0  0
 24 57  1  0  0  0  0
 24 58  1  0  0  0  0
 25 59  1  0  0  0  0
 25 60  1  0  0  0  0
 26 27  2  0  0  0  0
 26 61  1  0  0  0  0
 27 62  1  0  0  0  0
 28 63  1  0  0  0  0
 28 64  1  0  0  0  0
 29 34  1  0  0  0  0
M  END
> <ConfScore>
-0.511119 

$$$$
4agq


 64 66  0  0  0  0  0  0  0  0999 V2000
  124.2326   99.8365  -49.0893 N   0  0  0  1  0  3  0  0  0  0  0  0
  123.9580  107.6030  -44.7890 N   0  3  0  1  0  4  0  0  0  0  0  0
  125.4500  111.6190  -44.1530 N   0  3  0  1  0  4  0  0  0  0  0  0
  124.3998  101.0851  -51.1975 C   0  0  0  1  0  3  0  0  0  0  0  0
  124.4007  102.7364  -45.2146 C   0  0  0  1  0  3  0  0  0  0  0  0
  123.8758  105.0884  -44.9066 C   0  0  0  1  0  3  0  0  0  0  0  0
  124.7731  102.6426  -43.8665 C   0  0  0  1  0  3  0  0  0  0  0  0
  123.3850  106.3880  -45.4850 C   0  0  0  1  0  4  0  0  0  0  0  0
  122.9790  108.7410  -44.8490 C   0  0  0  1  0  4  0  0  0  0  0  0
  123.9646  103.9608  -45.7341 C   0  0  0  1  0  3  0  0  0  0  0  0
  124.4994  101.6071  -46.0833 C   0  0  0  1  0  2  0  0  0  0  0  0
  124.6964  103.7659  -43.0312 C   0  0  0  1  0  3  0  0  0  0  0  0
  124.5629  100.6886  -46.8550 C   0  0  0  1  0  2  0  0  0  0  0  0
  124.6644   99.5268  -47.7493 C   0  0  0  1  0  4  0  0  0  0  0  0
  124.8140  100.8069  -49.8917 C   0  0  0  1  0  3  0  0  0  0  0  0
  124.2427  104.9788  -43.5568 C   0  0  0  1  0  3  0  0  0  0  0  0
  125.8832  101.5582  -49.3832 C   0  0  0  1  0  3  0  0  0  0  0  0
  123.5670  109.9230  -44.0960 C   0  0  0  1  0  4  0  0  0  0  0  0
  126.5089  102.5492  -50.1477 C   0  0  0  1  0  3  0  0  0  0  0  0
  124.9010  110.3060  -44.7320 C   0  0  0  1  0  4  0  0  0  0  0  0
  125.1637  114.1076  -43.9526 C   0  0  0  1  0  4  0  0  0  0  0  0
  125.8040  111.5799  -42.6789 C   0  0  0  1  0  4  0  0  0  0  0  0
  126.3552  112.9249  -42.2386 C   0  0  0  1  0  4  0  0  0  0  0  0
  125.9010  109.1490  -44.6010 C   0  0  0  1  0  4  0  0  0  0  0  0
  125.3410  107.9150  -45.2920 C   0  0  0  1  0  4  0  0  0  0  0  0
  126.0773  102.8080  -51.4437 C   0  0  0  1  0  3  0  0  0  0  0  0
  125.0142  102.0763  -51.9696 C   0  0  0  1  0  3  0  0  0  0  0  0
  124.5315  112.8147  -44.4413 C   0  0  0  1  0  4  0  0  0  0  0  0
  124.1669  106.1027  -42.7646 O   0  0  0  1  0  2  0  0  0  0  0  0
  125.2263  103.6495  -40.9740 I   0  0  0  1  0  1  0  0  0  0  0  0
  123.5804  100.5166  -51.6239 H   0  0  0  1  0  1  0  0  0  0  0  0
  123.4409   99.3033  -49.4756 H   0  0  0  1  0  1  0  0  0  0  0  0
  124.0600  107.3680  -43.8140 H   0  0  0  1  0  1  0  0  0  0  0  0
  124.4427  105.8852  -41.8814 H   0  0  0  1  0  1  0  0  0  0  0  0
  125.1224  101.6977  -43.4676 H   0  0  0  1  0  1  0  0  0  0  0  0
  122.2887  106.4181  -45.3960 H   0  0  0  1  0  1  0  0  0  0  0  0
  123.6677  106.4274  -46.5468 H   0  0  0  1  0  1  0  0  0  0  0  0
  126.3137  111.7932  -44.6434 H   0  0  0  1  0  1  0  0  0  0  0  0
  122.0300  108.4400  -44.3820 H   0  0  0  1  0  1  0  0  0  0  0  0
  122.8000  109.0220  -45.8970 H   0  0  0  1  0  1  0  0  0  0  0  0
  123.6944  104.0377  -46.7811 H   0  0  0  1  0  1  0  0  0  0  0  0
  125.7131   99.1944  -47.7819 H   0  0  0  1  0  1  0  0  0  0  0  0
  124.0363   98.7163  -47.3524 H   0  0  0  1  0  1  0  0  0  0  0  0
  126.2317  101.3668  -48.3748 H   0  0  0  1  0  1  0  0  0  0  0  0
  123.7270  109.6460  -43.0440 H   0  0  0  1  0  1  0  0  0  0  0  0
  122.8750  110.7760  -44.1500 H   0  0  0  1  0  1  0  0  0  0  0  0
  127.3320  103.1152  -49.7283 H   0  0  0  1  0  1  0  0  0  0  0  0
  124.7240  110.4720  -45.8050 H   0  0  0  1  0  1  0  0  0  0  0  0
  126.1318  114.2539  -44.4536 H   0  0  0  1  0  1  0  0  0  0  0  0
  125.3200  114.0505  -42.8649 H   0  0  0  1  0  1  0  0  0  0  0  0
  124.4983  114.9524  -44.1848 H   0  0  0  1  0  1  0  0  0  0  0  0
  126.5628  110.8023  -42.5072 H   0  0  0  1  0  1  0  0  0  0  0  0
  124.9011  111.3471  -42.0938 H   0  0  0  1  0  1  0  0  0  0  0  0
  126.6086  112.8856  -41.1692 H   0  0  0  1  0  1  0  0  0  0  0  0
  125.5984  113.7046  -42.4078 H   0  0  0  1  0  1  0  0  0  0  0  0
  127.2595  113.1601  -42.8208 H   0  0  0  1  0  1  0  0  0  0  0  0
  126.0690  108.9290  -43.5370 H   0  0  0  1  0  1  0  0  0  0  0  0
  126.8540  109.4330  -45.0720 H   0  0  0  1  0  1  0  0  0  0  0  0
  125.2990  108.0960  -46.3760 H   0  0  0  1  0  1  0  0  0  0  0  0
  126.0010  107.0580  -45.0890 H   0  0  0  1  0  1  0  0  0  0  0  0
  126.5629  103.5728  -52.0387 H   0  0  0  1  0  1  0  0  0  0  0  0
  124.6637  102.2749  -52.9762 H   0  0  0  1  0  1  0  0  0  0  0  0
  123.5712  112.6647  -43.9257 H   0  0  0  1  0  1  0  0  0  0  0  0
  124.3583  112.8841  -45.5258 H   0  0  0  1  0  1  0  0  0  0  0  0
  1 14  1  0  0  0  0
  1 15  1  0  0  0  0
  1 32  1  0  0  0  0
  2  8  1  0  0  0  0
  2  9  1  0  0  0  0
  2 25  1  0  0  0  0
  2 33  1  0  0  0  0
  3 20  1  0  0  0  0
  3 22  1  0  0  0  0
  3 28  1  0  0  0  0
  3 38  1  0  0  0  0
  4 15  2  0  0  0  0
  4 27  1  0  0  0  0
  4 31  1  0  0  0  0
  5  7  2  0  0  0  0
  5 10  1  0  0  0  0
  5 11  1  0  0  0  0
  6  8  1  0  0  0  0
  6 10  2  0  0  0  0
  6 16  1  0  0  0  0
  7 12  1  0  0  0  0
  7 35  1  0  0  0  0
  8 36  1  0  0  0  0
  8 37  1  0  0  0  0
  9 18  1  0  0  0  0
  9 39  1  0  0  0  0
  9 40  1  0  0  0  0
 10 41  1  0  0  0  0
 11 13  3  0  0  0  0
 12 16  2  0  0  0  0
 12 30  1  0  0  0  0
 13 14  1  0  0  0  0
 14 42  1  0  0  0  0
 14 43  1  0  0  0  0
 15 17  1  0  0  0  0
 16 29  1  0  0  0  0
 17 19  2  0  0  0  0
 17 44  1  0  0  0  0
 18 20  1  0  0  0  0
 18 45  1  0  0  0  0
 18 46  1  0  0  0  0
 19 26  1  0  0  0  0
 19 47  1  0  0  0  0
 20 24  1  0  0  0  0
 20 48  1  0  0  0  0
 21 28  1  0  0  0  0
 21 49  1  0  0  0  0
 21 50  1  0  0  0  0
 21 51  1  0  0  0  0
 22 23  1  0  0  0  0
 22 52  1  0  0  0  0
 22 53  1  0  0  0  0
 23 54  1  0  0  0  0
 23 55  1  0  0  0  0
 23 56  1  0  0  0  0
 24 25  1  0  0  0  0
 24 57  1  0  0  0  0
 24 58  1  0  0  0  0
 25 59  1  0  0  0  0
 25 60  1  0  0  0  0
 26 27  2  0  0  0  0
 26 61  1  0  0  0  0
 27 62  1  0  0  0  0
 28 63  1  0  0  0  0
 28 64  1  0  0  0  0
 29 34  1  0  0  0  0
M  END
> <ConfScore>
-0.506336 

$$$$
4agq


 64 66  0  0  0  0  0  0  0  0999 V2000
  125.1641   98.2888  -46.9716 N   0  0  0  1  0  3  0  0  0  0  0  0
  123.9580  107.6030  -44.7890 N   0  3  0  1  0  4  0  0  0  0  0  0
  125.4500  111.6190  -44.1530 N   0  3  0  1  0  4  0  0  0  0  0  0
  124.9546   96.5546  -45.2453 C   0  0  0  1  0  3  0  0  0  0  0  0
  124.4007  102.7364  -45.2146 C   0  0  0  1  0  3  0  0  0  0  0  0
  123.8758  105.0884  -44.9066 C   0  0  0  1  0  3  0  0  0  0  0  0
  124.7731  102.6426  -43.8665 C   0  0  0  1  0  3  0  0  0  0  0  0
  123.3850  106.3880  -45.4850 C   0  0  0  1  0  4  0  0  0  0  0  0
  122.9790  108.7410  -44.8490 C   0  0  0  1  0  4  0  0  0  0  0  0
  123.9646  103.9608  -45.7341 C   0  0  0  1  0  3  0  0  0  0  0  0
  124.4994  101.6071  -46.0833 C   0  0  0  1  0  2  0  0  0  0  0  0
  124.6964  103.7659  -43.0312 C   0  0  0  1  0  3  0  0  0  0  0  0
  124.5998  100.6273  -46.7712 C   0  0  0  1  0  2  0  0  0  0  0  0
  124.7015   99.4650  -47.6648 C   0  0  0  1  0  4  0  0  0  0  0  0
  124.5072   97.7073  -45.8974 C   0  0  0  1  0  3  0  0  0  0  0  0
  124.2427  104.9788  -43.5568 C   0  0  0  1  0  3  0  0  0  0  0  0
  123.3221   98.2918  -45.4281 C   0  0  0  1  0  3  0  0  0  0  0  0
  123.5670  109.9230  -44.0960 C   0  0  0  1  0  4  0  0  0  0  0  0
  122.6166   97.7481  -44.3489 C   0  0  0  1  0  3  0  0  0  0  0  0
  124.9010  110.3060  -44.7320 C   0  0  0  1  0  4  0  0  0  0  0  0
  125.1637  114.1076  -43.9526 C   0  0  0  1  0  4  0  0  0  0  0  0
  125.8040  111.5799  -42.6789 C   0  0  0  1  0  4  0  0  0  0  0  0
  126.3552  112.9249  -42.2386 C   0  0  0  1  0  4  0  0  0  0  0  0
  125.9010  109.1490  -44.6010 C   0  0  0  1  0  4  0  0  0  0  0  0
  125.3410  107.9150  -45.2920 C   0  0  0  1  0  4  0  0  0  0  0  0
  123.0831   96.6016  -43.7160 C   0  0  0  1  0  3  0  0  0  0  0  0
  124.2606   96.0047  -44.1626 C   0  0  0  1  0  3  0  0  0  0  0  0
  124.5315  112.8147  -44.4413 C   0  0  0  1  0  4  0  0  0  0  0  0
  124.1669  106.1027  -42.7646 O   0  0  0  1  0  2  0  0  0  0  0  0
  125.2263  103.6495  -40.9740 I   0  0  0  1  0  1  0  0  0  0  0  0
  125.8639   96.0732  -45.5884 H   0  0  0  1  0  1  0  0  0  0  0  0
  126.0392   97.8524  -47.2943 H   0  0  0  1  0  1  0  0  0  0  0  0
  124.0600  107.3680  -43.8140 H   0  0  0  1  0  1  0  0  0  0  0  0
  124.4427  105.8852  -41.8814 H   0  0  0  1  0  1  0  0  0  0  0  0
  125.1224  101.6977  -43.4676 H   0  0  0  1  0  1  0  0  0  0  0  0
  122.2887  106.4181  -45.3960 H   0  0  0  1  0  1  0  0  0  0  0  0
  123.6677  106.4274  -46.5468 H   0  0  0  1  0  1  0  0  0  0  0  0
  126.3137  111.7932  -44.6434 H   0  0  0  1  0  1  0  0  0  0  0  0
  122.0300  108.4400  -44.3820 H   0  0  0  1  0  1  0  0  0  0  0  0
  122.8000  109.0220  -45.8970 H   0  0  0  1  0  1  0  0  0  0  0  0
  123.6944  104.0377  -46.7811 H   0  0  0  1  0  1  0  0  0  0  0  0
  123.7087   99.2579  -48.0923 H   0  0  0  1  0  1  0  0  0  0  0  0
  125.4066   99.6997  -48.4751 H   0  0  0  1  0  1  0  0  0  0  0  0
  122.9453   99.1853  -45.9124 H   0  0  0  1  0  1  0  0  0  0  0  0
  123.7270  109.6460  -43.0440 H   0  0  0  1  0  1  0  0  0  0  0  0
  122.8750  110.7760  -44.1500 H   0  0  0  1  0  1  0  0  0  0  0  0
  121.7043   98.2219  -44.0068 H   0  0  0  1  0  1  0  0  0  0  0  0
  124.7240  110.4720  -45.8050 H   0  0  0  1  0  1  0  0  0  0  0  0
  126.1318  114.2539  -44.4536 H   0  0  0  1  0  1  0  0  0  0  0  0
  125.3200  114.0505  -42.8649 H   0  0  0  1  0  1  0  0  0  0  0  0
  124.4983  114.9524  -44.1848 H   0  0  0  1  0  1  0  0  0  0  0  0
  126.5628  110.8023  -42.5072 H   0  0  0  1  0  1  0  0  0  0  0  0
  124.9011  111.3471  -42.0938 H   0  0  0  1  0  1  0  0  0  0  0  0
  126.6086  112.8856  -41.1692 H   0  0  0  1  0  1  0  0  0  0  0  0
  125.5984  113.7046  -42.4078 H   0  0  0  1  0  1  0  0  0  0  0  0
  127.2595  113.1601  -42.8208 H   0  0  0  1  0  1  0  0  0  0  0  0
  126.0690  108.9290  -43.5370 H   0  0  0  1  0  1  0  0  0  0  0  0
  126.8540  109.4330  -45.0720 H   0  0  0  1  0  1  0  0  0  0  0  0
  125.2990  108.0960  -46.3760 H   0  0  0  1  0  1  0  0  0  0  0  0
  126.0010  107.0580  -45.0890 H   0  0  0  1  0  1  0  0  0  0  0  0
  122.5363   96.1769  -42.8821 H   0  0  0  1  0  1  0  0  0  0  0  0
  124.6384   95.1148  -43.6716 H   0  0  0  1  0  1  0  0  0  0  0  0
  123.5712  112.6647  -43.9257 H   0  0  0  1  0  1  0  0  0  0  0  0
  124.3583  112.8841  -45.5258 H   0  0  0  1  0  1  0  0  0  0  0  0
  1 14  1  0  0  0  0
  1 15  1  0  0  0  0
  1 32  1  0  0  0  0
  2  8  1  0  0  0  0
  2  9  1  0  0  0  0
  2 25  1  0  0  0  0
  2 33  1  0  0  0  0
  3 20  1  0  0  0  0
  3 22  1  0  0  0  0
  3 28  1  0  0  0  0
  3 38  1  0  0  0  0
  4 15  2  0  0  0  0
  4 27  1  0  0  0  0
  4 31  1  0  0  0  0
  5  7  2  0  0  0  0
  5 10  1  0  0  0  0
  5 11  1  0  0  0  0
  6  8  1  0  0  0  0
  6 10  2  0  0  0  0
  6 16  1  0  0  0  0
  7 12  1  0  0  0  0
  7 35  1  0  0  0  0
  8 36  1  0  0  0  0
  8 37  1  0  0  0  0
  9 18  1  0  0  0  0
  9 39  1  0  0  0  0
  9 40  1  0  0  0  0
 10 41  1  0  0  0  0
 11 13  3  0  0  0  0
 12 16  2  0  0  0  0
 12 30  1  0  0  0  0
 13 14  1  0  0  0  0
 14 42  1  0  0  0  0
 14 43  1  0  0  0  0
 15 17  1  0  0  0  0
 16 29  1  0  0  0  0
 17 19  2  0  0  0  0
 17 44  1  0  0  0  0
 18 20  1  0  0  0  0
 18 45  1  0  0  0  0
 18 46  1  0  0  0  0
 19 26  1  0  0  0  0
 19 47  1  0  0  0  0
 20 24  1  0  0  0  0
 20 48  1  0  0  0  0
 21 28  1  0  0  0  0
 21 49  1  0  0  0  0
 21 50  1  0  0  0  0
 21 51  1  0  0  0  0
 22 23  1  0  0  0  0
 22 52  1  0  0  0  0
 22 53  1  0  0  0  0
 23 54  1  0  0  0  0
 23 55  1  0  0  0  0
 23 56  1  0  0  0  0
 24 25  1  0  0  0  0
 24 57  1  0  0  0  0
 24 58  1  0  0  0  0
 25 59  1  0  0  0  0
 25 60  1  0  0  0  0
 26 27  2  0  0  0  0
 26 61  1  0  0  0  0
 27 62  1  0  0  0  0
 28 63  1  0  0  0  0
 28 64  1  0  0  0  0
 29 34  1  0  0  0  0
M  END
> <ConfScore>
-0.506336 

$$$$
4agq


 64 66  0  0  0  0  0  0  0  0999 V2000
  128.4056  104.7083  -50.8333 N   0  0  0  1  0  3  0  0  0  0  0  0
  123.9580  107.6030  -44.7890 N   0  3  0  1  0  4  0  0  0  0  0  0
  125.4500  111.6190  -44.1530 N   0  3  0  1  0  4  0  0  0  0  0  0
  127.2455  102.7121  -49.9961 C   0  0  0  1  0  3  0  0  0  0  0  0
  124.1664  106.3889  -49.2037 C   0  0  0  1  0  3  0  0  0  0  0  0
  123.2293  106.5753  -46.9700 C   0  0  0  1  0  3  0  0  0  0  0  0
  122.9864  106.9194  -49.7433 C   0  0  0  1  0  3  0  0  0  0  0  0
  123.3850  106.3880  -45.4850 C   0  0  0  1  0  4  0  0  0  0  0  0
  122.9790  108.7410  -44.8490 C   0  0  0  1  0  4  0  0  0  0  0  0
  124.2805  106.2071  -47.8205 C   0  0  0  1  0  3  0  0  0  0  0  0
  125.2450  105.9886  -50.0498 C   0  0  0  1  0  2  0  0  0  0  0  0
  121.9250  107.2836  -48.9029 C   0  0  0  1  0  3  0  0  0  0  0  0
  126.1805  105.6371  -50.7165 C   0  0  0  1  0  2  0  0  0  0  0  0
  127.2907  105.2250  -51.5869 C   0  0  0  1  0  4  0  0  0  0  0  0
  128.3694  103.5381  -50.0897 C   0  0  0  1  0  3  0  0  0  0  0  0
  122.0573  107.1139  -47.5220 C   0  0  0  1  0  3  0  0  0  0  0  0
  129.5141  103.1481  -49.3800 C   0  0  0  1  0  3  0  0  0  0  0  0
  123.5670  109.9230  -44.0960 C   0  0  0  1  0  4  0  0  0  0  0  0
  129.5348  101.9783  -48.6124 C   0  0  0  1  0  3  0  0  0  0  0  0
  124.9010  110.3060  -44.7320 C   0  0  0  1  0  4  0  0  0  0  0  0
  125.1637  114.1076  -43.9526 C   0  0  0  1  0  4  0  0  0  0  0  0
  125.8040  111.5799  -42.6789 C   0  0  0  1  0  4  0  0  0  0  0  0
  126.8886  110.5464  -42.4297 C   0  0  0  1  0  4  0  0  0  0  0  0
  125.9010  109.1490  -44.6010 C   0  0  0  1  0  4  0  0  0  0  0  0
  125.3410  107.9150  -45.2920 C   0  0  0  1  0  4  0  0  0  0  0  0
  128.4044  101.1726  -48.5366 C   0  0  0  1  0  3  0  0  0  0  0  0
  127.2557  101.5381  -49.2360 C   0  0  0  1  0  3  0  0  0  0  0  0
  124.5315  112.8147  -44.4413 C   0  0  0  1  0  4  0  0  0  0  0  0
  121.0282  107.4515  -46.6714 O   0  0  0  1  0  2  0  0  0  0  0  0
  120.1325  108.1187  -49.6881 I   0  0  0  1  0  1  0  0  0  0  0  0
  126.3410  102.9892  -50.5266 H   0  0  0  1  0  1  0  0  0  0  0  0
  129.2856  105.2428  -50.8473 H   0  0  0  1  0  1  0  0  0  0  0  0
  124.0600  107.3680  -43.8140 H   0  0  0  1  0  1  0  0  0  0  0  0
  120.3032  107.8013  -47.1769 H   0  0  0  1  0  1  0  0  0  0  0  0
  122.8936  107.0485  -50.8151 H   0  0  0  1  0  1  0  0  0  0  0  0
  124.0567  105.5345  -45.3090 H   0  0  0  1  0  1  0  0  0  0  0  0
  122.3969  106.1716  -45.0541 H   0  0  0  1  0  1  0  0  0  0  0  0
  126.3137  111.7932  -44.6434 H   0  0  0  1  0  1  0  0  0  0  0  0
  122.0300  108.4400  -44.3820 H   0  0  0  1  0  1  0  0  0  0  0  0
  122.8000  109.0220  -45.8970 H   0  0  0  1  0  1  0  0  0  0  0  0
  125.1859  105.7794  -47.4049 H   0  0  0  1  0  1  0  0  0  0  0  0
  126.9324  104.4424  -52.2729 H   0  0  0  1  0  1  0  0  0  0  0  0
  127.6282  106.0946  -52.1689 H   0  0  0  1  0  1  0  0  0  0  0  0
  130.4028  103.7668  -49.4283 H   0  0  0  1  0  1  0  0  0  0  0  0
  123.7270  109.6460  -43.0440 H   0  0  0  1  0  1  0  0  0  0  0  0
  122.8750  110.7760  -44.1500 H   0  0  0  1  0  1  0  0  0  0  0  0
  130.4340  101.7008  -48.0755 H   0  0  0  1  0  1  0  0  0  0  0  0
  124.7240  110.4720  -45.8050 H   0  0  0  1  0  1  0  0  0  0  0  0
  126.1318  114.2539  -44.4536 H   0  0  0  1  0  1  0  0  0  0  0  0
  125.3200  114.0505  -42.8649 H   0  0  0  1  0  1  0  0  0  0  0  0
  124.4983  114.9524  -44.1848 H   0  0  0  1  0  1  0  0  0  0  0  0
  124.9091  111.3153  -42.0965 H   0  0  0  1  0  1  0  0  0  0  0  0
  126.1662  112.5709  -42.3652 H   0  0  0  1  0  1  0  0  0  0  0  0
  127.1373  110.5261  -41.3587 H   0  0  0  1  0  1  0  0  0  0  0  0
  127.7853  110.8087  -43.0097 H   0  0  0  1  0  1  0  0  0  0  0  0
  126.5288  109.5535  -42.7409 H   0  0  0  1  0  1  0  0  0  0  0  0
  126.0690  108.9290  -43.5370 H   0  0  0  1  0  1  0  0  0  0  0  0
  126.8540  109.4330  -45.0720 H   0  0  0  1  0  1  0  0  0  0  0  0
  125.2990  108.0960  -46.3760 H   0  0  0  1  0  1  0  0  0  0  0  0
  126.0010  107.0580  -45.0890 H   0  0  0  1  0  1  0  0  0  0  0  0
  128.4172  100.2679  -47.9398 H   0  0  0  1  0  1  0  0  0  0  0  0
  126.3707  100.9134  -49.1908 H   0  0  0  1  0  1  0  0  0  0  0  0
  123.5712  112.6647  -43.9257 H   0  0  0  1  0  1  0  0  0  0  0  0
  124.3583  112.8841  -45.5258 H   0  0  0  1  0  1  0  0  0  0  0  0
  1 14  1  0  0  0  0
  1 15  1  0  0  0  0
  1 32  1  0  0  0  0
  2  8  1  0  0  0  0
  2  9  1  0  0  0  0
  2 25  1  0  0  0  0
  2 33  1  0  0  0  0
  3 20  1  0  0  0  0
  3 22  1  0  0  0  0
  3 28  1  0  0  0  0
  3 38  1  0  0  0  0
  4 15  2  0  0  0  0
  4 27  1  0  0  0  0
  4 31  1  0  0  0  0
  5  7  2  0  0  0  0
  5 10  1  0  0  0  0
  5 11  1  0  0  0  0
  6  8  1  0  0  0  0
  6 10  2  0  0  0  0
  6 16  1  0  0  0  0
  7 12  1  0  0  0  0
  7 35  1  0  0  0  0
  8 36  1  0  0  0  0
  8 37  1  0  0  0  0
  9 18  1  0  0  0  0
  9 39  1  0  0  0  0
  9 40  1  0  0  0  0
 10 41  1  0  0  0  0
 11 13  3  0  0  0  0
 12 16  2  0  0  0  0
 12 30  1  0  0  0  0
 13 14  1  0  0  0  0
 14 42  1  0  0  0  0
 14 43  1  0  0  0  0
 15 17  1  0  0  0  0
 16 29  1  0  0  0  0
 17 19  2  0  0  0  0
 17 44  1  0  0  0  0
 18 20  1  0  0  0  0
 18 45  1  0  0  0  0
 18 46  1  0  0  0  0
 19 26  1  0  0  0  0
 19 47  1  0  0  0  0
 20 24  1  0  0  0  0
 20 48  1  0  0  0  0
 21 28  1  0  0  0  0
 21 49  1  0  0  0  0
 21 50  1  0  0  0  0
 21 51  1  0  0  0  0
 22 23  1  0  0  0  0
 22 52  1  0  0  0  0
 22 53  1  0  0  0  0
 23 54  1  0  0  0  0
 23 55  1  0  0  0  0
 23 56  1  0  0  0  0
 24 25  1  0  0  0  0
 24 57  1  0  0  0  0
 24 58  1  0  0  0  0
 25 59  1  0  0  0  0
 25 60  1  0  0  0  0
 26 27  2  0  0  0  0
 26 61  1  0  0  0  0
 27 62  1  0  0  0  0
 28 63  1  0  0  0  0
 28 64  1  0  0  0  0
 29 34  1  0  0  0  0
M  END
> <ConfScore>
-0.506231 

$$$$
4agq


 64 66  0  0  0  0  0  0  0  0999 V2000
  124.2326   99.8365  -49.0893 N   0  0  0  1  0  3  0  0  0  0  0  0
  123.9580  107.6030  -44.7890 N   0  3  0  1  0  4  0  0  0  0  0  0
  125.4500  111.6190  -44.1530 N   0  3  0  1  0  4  0  0  0  0  0  0
  121.8568   99.3390  -48.7157 C   0  0  0  1  0  3  0  0  0  0  0  0
  124.4007  102.7364  -45.2146 C   0  0  0  1  0  3  0  0  0  0  0  0
  123.8758  105.0884  -44.9066 C   0  0  0  1  0  3  0  0  0  0  0  0
  124.7731  102.6426  -43.8665 C   0  0  0  1  0  3  0  0  0  0  0  0
  123.3850  106.3880  -45.4850 C   0  0  0  1  0  4  0  0  0  0  0  0
  122.9790  108.7410  -44.8490 C   0  0  0  1  0  4  0  0  0  0  0  0
  123.9646  103.9608  -45.7341 C   0  0  0  1  0  3  0  0  0  0  0  0
  124.4994  101.6071  -46.0833 C   0  0  0  1  0  2  0  0  0  0  0  0
  124.6964  103.7659  -43.0312 C   0  0  0  1  0  3  0  0  0  0  0  0
  124.5629  100.6886  -46.8550 C   0  0  0  1  0  2  0  0  0  0  0  0
  124.6644   99.5268  -47.7493 C   0  0  0  1  0  4  0  0  0  0  0  0
  122.9151   99.7743  -49.5185 C   0  0  0  1  0  3  0  0  0  0  0  0
  124.2427  104.9788  -43.5568 C   0  0  0  1  0  3  0  0  0  0  0  0
  122.6089  100.1608  -50.8312 C   0  0  0  1  0  3  0  0  0  0  0  0
  123.5670  109.9230  -44.0960 C   0  0  0  1  0  4  0  0  0  0  0  0
  121.2980  100.1176  -51.3187 C   0  0  0  1  0  3  0  0  0  0  0  0
  124.9010  110.3060  -44.7320 C   0  0  0  1  0  4  0  0  0  0  0  0
  125.1637  114.1076  -43.9526 C   0  0  0  1  0  4  0  0  0  0  0  0
  125.8040  111.5799  -42.6789 C   0  0  0  1  0  4  0  0  0  0  0  0
  126.8094  110.4731  -42.4126 C   0  0  0  1  0  4  0  0  0  0  0  0
  125.9010  109.1490  -44.6010 C   0  0  0  1  0  4  0  0  0  0  0  0
  125.3410  107.9150  -45.2920 C   0  0  0  1  0  4  0  0  0  0  0  0
  120.2623   99.6822  -50.4999 C   0  0  0  1  0  3  0  0  0  0  0  0
  120.5418   99.2960  -49.1903 C   0  0  0  1  0  3  0  0  0  0  0  0
  124.5315  112.8147  -44.4413 C   0  0  0  1  0  4  0  0  0  0  0  0
  124.1669  106.1027  -42.7646 O   0  0  0  1  0  2  0  0  0  0  0  0
  125.2263  103.6495  -40.9740 I   0  0  0  1  0  1  0  0  0  0  0  0
  122.0606   99.0254  -47.6976 H   0  0  0  1  0  1  0  0  0  0  0  0
  124.9484  100.1216  -49.7722 H   0  0  0  1  0  1  0  0  0  0  0  0
  124.0600  107.3680  -43.8140 H   0  0  0  1  0  1  0  0  0  0  0  0
  124.4427  105.8852  -41.8814 H   0  0  0  1  0  1  0  0  0  0  0  0
  125.1224  101.6977  -43.4676 H   0  0  0  1  0  1  0  0  0  0  0  0
  122.2887  106.4181  -45.3960 H   0  0  0  1  0  1  0  0  0  0  0  0
  123.6677  106.4274  -46.5468 H   0  0  0  1  0  1  0  0  0  0  0  0
  126.3137  111.7932  -44.6434 H   0  0  0  1  0  1  0  0  0  0  0  0
  122.0300  108.4400  -44.3820 H   0  0  0  1  0  1  0  0  0  0  0  0
  122.8000  109.0220  -45.8970 H   0  0  0  1  0  1  0  0  0  0  0  0
  123.6944  104.0377  -46.7811 H   0  0  0  1  0  1  0  0  0  0  0  0
  125.7131   99.1944  -47.7819 H   0  0  0  1  0  1  0  0  0  0  0  0
  124.0363   98.7163  -47.3524 H   0  0  0  1  0  1  0  0  0  0  0  0
  123.4061  100.5013  -51.4818 H   0  0  0  1  0  1  0  0  0  0  0  0
  123.7270  109.6460  -43.0440 H   0  0  0  1  0  1  0  0  0  0  0  0
  122.8750  110.7760  -44.1500 H   0  0  0  1  0  1  0  0  0  0  0  0
  121.0905  100.4237  -52.3370 H   0  0  0  1  0  1  0  0  0  0  0  0
  124.7240  110.4720  -45.8050 H   0  0  0  1  0  1  0  0  0  0  0  0
  126.1318  114.2539  -44.4536 H   0  0  0  1  0  1  0  0  0  0  0  0
  125.3200  114.0505  -42.8649 H   0  0  0  1  0  1  0  0  0  0  0  0
  124.4983  114.9524  -44.1848 H   0  0  0  1  0  1  0  0  0  0  0  0
  124.8935  111.3930  -42.0907 H   0  0  0  1  0  1  0  0  0  0  0  0
  126.2397  112.5466  -42.3835 H   0  0  0  1  0  1  0  0  0  0  0  0
  127.0588  110.4535  -41.3418 H   0  0  0  1  0  1  0  0  0  0  0  0
  127.7216  110.6576  -42.9984 H   0  0  0  1  0  1  0  0  0  0  0  0
  126.3760  109.5044  -42.7055 H   0  0  0  1  0  1  0  0  0  0  0  0
  126.0690  108.9290  -43.5370 H   0  0  0  1  0  1  0  0  0  0  0  0
  126.8540  109.4330  -45.0720 H   0  0  0  1  0  1  0  0  0  0  0  0
  125.2990  108.0960  -46.3760 H   0  0  0  1  0  1  0  0  0  0  0  0
  126.0010  107.0580  -45.0890 H   0  0  0  1  0  1  0  0  0  0  0  0
  119.2467   99.6447  -50.8766 H   0  0  0  1  0  1  0  0  0  0  0  0
  119.7410   98.9622  -48.5400 H   0  0  0  1  0  1  0  0  0  0  0  0
  123.5712  112.6647  -43.9257 H   0  0  0  1  0  1  0  0  0  0  0  0
  124.3583  112.8841  -45.5258 H   0  0  0  1  0  1  0  0  0  0  0  0
  1 14  1  0  0  0  0
  1 15  1  0  0  0  0
  1 32  1  0  0  0  0
  2  8  1  0  0  0  0
  2  9  1  0  0  0  0
  2 25  1  0  0  0  0
  2 33  1  0  0  0  0
  3 20  1  0  0  0  0
  3 22  1  0  0  0  0
  3 28  1  0  0  0  0
  3 38  1  0  0  0  0
  4 15  2  0  0  0  0
  4 27  1  0  0  0  0
  4 31  1  0  0  0  0
  5  7  2  0  0  0  0
  5 10  1  0  0  0  0
  5 11  1  0  0  0  0
  6  8  1  0  0  0  0
  6 10  2  0  0  0  0
  6 16  1  0  0  0  0
  7 12  1  0  0  0  0
  7 35  1  0  0  0  0
  8 36  1  0  0  0  0
  8 37  1  0  0  0  0
  9 18  1  0  0  0  0
  9 39  1  0  0  0  0
  9 40  1  0  0  0  0
 10 41  1  0  0  0  0
 11 13  3  0  0  0  0
 12 16  2  0  0  0  0
 12 30  1  0  0  0  0
 13 14  1  0  0  0  0
 14 42  1  0  0  0  0
 14 43  1  0  0  0  0
 15 17  1  0  0  0  0
 16 29  1  0  0  0  0
 17 19  2  0  0  0  0
 17 44  1  0  0  0  0
 18 20  1  0  0  0  0
 18 45  1  0  0  0  0
 18 46  1  0  0  0  0
 19 26  1  0  0  0  0
 19 47  1  0  0  0  0
 20 24  1  0  0  0  0
 20 48  1  0  0  0  0
 21 28  1  0  0  0  0
 21 49  1  0  0  0  0
 21 50  1  0  0  0  0
 21 51  1  0  0  0  0
 22 23  1  0  0  0  0
 22 52  1  0  0  0  0
 22 53  1  0  0  0  0
 23 54  1  0  0  0  0
 23 55  1  0  0  0  0
 23 56  1  0  0  0  0
 24 25  1  0  0  0  0
 24 57  1  0  0  0  0
 24 58  1  0  0  0  0
 25 59  1  0  0  0  0
 25 60  1  0  0  0  0
 26 27  2  0  0  0  0
 26 61  1  0  0  0  0
 27 62  1  0  0  0  0
 28 63  1  0  0  0  0
 28 64  1  0  0  0  0
 29 34  1  0  0  0  0
M  END
> <ConfScore>
-0.503936 

$$$$
4agq


 64 66  0  0  0  0  0  0  0  0999 V2000
    0.4530   -2.0284    6.8154 N   0  0  0  1  0  3  0  0  0  0  0  0
    2.5209    6.6299    6.3322 N   0  3  0  1  0  4  0  0  0  0  0  0
    1.3441    8.7890    9.1245 N   0  3  0  1  0  4  0  0  0  0  0  0
    2.8771   -1.6901    7.0172 C   0  0  0  1  0  3  0  0  0  0  0  0
    1.5599    2.0885    4.5182 C   0  0  0  1  0  3  0  0  0  0  0  0
    2.3266    4.2519    5.3146 C   0  0  0  1  0  3  0  0  0  0  0  0
    1.5594    2.5726    3.2027 C   0  0  0  1  0  3  0  0  0  0  0  0
    2.7438    5.1386    6.4710 C   0  0  0  1  0  4  0  0  0  0  0  0
    1.0783    6.9623    6.6507 C   0  0  0  1  0  4  0  0  0  0  0  0
    1.9317    2.9321    5.5715 C   0  0  0  1  0  3  0  0  0  0  0  0
    1.1442    0.7535    4.8090 C   0  0  0  1  0  2  0  0  0  0  0  0
    1.9445    3.8936    2.9345 C   0  0  0  1  0  3  0  0  0  0  0  0
    0.8045   -0.3597    5.1069 C   0  0  0  1  0  2  0  0  0  0  0  0
    0.3768   -1.7335    5.4065 C   0  0  0  1  0  4  0  0  0  0  0  0
    1.6241   -1.9929    7.5578 C   0  0  0  1  0  3  0  0  0  0  0  0
    2.3307    4.7212    3.9923 C   0  0  0  1  0  3  0  0  0  0  0  0
    1.5684   -2.2797    8.9292 C   0  0  0  1  0  3  0  0  0  0  0  0
    0.8308    8.4545    6.7078 C   0  0  0  1  0  4  0  0  0  0  0  0
    2.7177   -2.2601    9.7272 C   0  0  0  1  0  3  0  0  0  0  0  0
    1.7396    9.1749    7.6909 C   0  0  0  1  0  4  0  0  0  0  0  0
   -1.1182    9.1623    8.7880 C   0  0  0  1  0  4  0  0  0  0  0  0
    1.1784    7.3024    9.3738 C   0  0  0  1  0  4  0  0  0  0  0  0
   -0.0231    6.7755    8.6086 C   0  0  0  1  0  4  0  0  0  0  0  0
    3.1859    8.7850    7.4475 C   0  0  0  1  0  4  0  0  0  0  0  0
    3.3964    7.2849    7.3752 C   0  0  0  1  0  4  0  0  0  0  0  0
    3.9524   -1.9544    9.1660 C   0  0  0  1  0  3  0  0  0  0  0  0
    4.0321   -1.6627    7.8055 C   0  0  0  1  0  3  0  0  0  0  0  0
    0.1003    9.5453    9.6118 C   0  0  0  1  0  4  0  0  0  0  0  0
    2.7033    6.0269    3.7624 O   0  0  0  1  0  2  0  0  0  0  0  0
    1.9826    4.6497    0.9461 I   0  0  0  1  0  1  0  0  0  0  0  0
    2.9562   -1.4711    5.9579 H   0  0  0  1  0  1  0  0  0  0  0  0
   -0.4180   -2.2826    7.3021 H   0  0  0  1  0  1  0  0  0  0  0  0
    2.7338    6.9425    5.3977 H   0  0  0  1  0  1  0  0  0  0  0  0
    2.6605    6.2075    2.8301 H   0  0  0  1  0  1  0  0  0  0  0  0
    1.2596    1.9231    2.3889 H   0  0  0  1  0  1  0  0  0  0  0  0
    2.1860    4.8045    7.3586 H   0  0  0  1  0  1  0  0  0  0  0  0
    3.8198    4.9815    6.6332 H   0  0  0  1  0  1  0  0  0  0  0  0
    2.1105    9.0867    9.7084 H   0  0  0  1  0  1  0  0  0  0  0  0
    0.8218    6.5240    7.6261 H   0  0  0  1  0  1  0  0  0  0  0  0
    0.4352    6.5270    5.8721 H   0  0  0  1  0  1  0  0  0  0  0  0
    1.9141    2.5632    6.5908 H   0  0  0  1  0  1  0  0  0  0  0  0
   -0.6640   -1.8620    5.0724 H   0  0  0  1  0  1  0  0  0  0  0  0
    1.0249   -2.4347    4.8615 H   0  0  0  1  0  1  0  0  0  0  0  0
    0.6130   -2.5211    9.3807 H   0  0  0  1  0  1  0  0  0  0  0  0
   -0.2132    8.6243    7.0082 H   0  0  0  1  0  1  0  0  0  0  0  0
    0.9973    8.8749    5.7054 H   0  0  0  1  0  1  0  0  0  0  0  0
    2.6446   -2.4845   10.7845 H   0  0  0  1  0  1  0  0  0  0  0  0
    1.6289   10.2615    7.5593 H   0  0  0  1  0  1  0  0  0  0  0  0
   -1.2879    8.0786    8.8675 H   0  0  0  1  0  1  0  0  0  0  0  0
   -0.9464    9.4290    7.7343 H   0  0  0  1  0  1  0  0  0  0  0  0
   -2.0003    9.7012    9.1647 H   0  0  0  1  0  1  0  0  0  0  0  0
    1.0292    7.1280   10.4496 H   0  0  0  1  0  1  0  0  0  0  0  0
    2.0840    6.7740    9.0386 H   0  0  0  1  0  1  0  0  0  0  0  0
   -0.1342    5.6977    8.7964 H   0  0  0  1  0  1  0  0  0  0  0  0
    0.1234    6.9472    7.5324 H   0  0  0  1  0  1  0  0  0  0  0  0
   -0.9311    7.3008    8.9428 H   0  0  0  1  0  1  0  0  0  0  0  0
    3.7982    9.1844    8.2686 H   0  0  0  1  0  1  0  0  0  0  0  0
    3.5125    9.2301    6.4957 H   0  0  0  1  0  1  0  0  0  0  0  0
    4.4494    7.0877    7.1266 H   0  0  0  1  0  1  0  0  0  0  0  0
    3.1628    6.8476    8.3578 H   0  0  0  1  0  1  0  0  0  0  0  0
    4.8444   -1.9421    9.7816 H   0  0  0  1  0  1  0  0  0  0  0  0
    4.9883   -1.4150    7.3585 H   0  0  0  1  0  1  0  0  0  0  0  0
    0.2754   10.6274    9.5163 H   0  0  0  1  0  1  0  0  0  0  0  0
   -0.0838    9.2957   10.6676 H   0  0  0  1  0  1  0  0  0  0  0  0
  1 14  1  0  0  0  0
  1 15  1  0  0  0  0
  1 32  1  0  0  0  0
  2  8  1  0  0  0  0
  2  9  1  0  0  0  0
  2 25  1  0  0  0  0
  2 33  1  0  0  0  0
  3 20  1  0  0  0  0
  3 22  1  0  0  0  0
  3 28  1  0  0  0  0
  3 38  1  0  0  0  0
  4 15  2  0  0  0  0
  4 27  1  0  0  0  0
  4 31  1  0  0  0  0
  5  7  2  0  0  0  0
  5 10  1  0  0  0  0
  5 11  1  0  0  0  0
  6  8  1  0  0  0  0
  6 10  2  0  0  0  0
  6 16  1  0  0  0  0
  7 12  1  0  0  0  0
  7 35  1  0  0  0  0
  8 36  1  0  0  0  0
  8 37  1  0  0  0  0
  9 18  1  0  0  0  0
  9 39  1  0  0  0  0
  9 40  1  0  0  0  0
 10 41  1  0  0  0  0
 11 13  3  0  0  0  0
 12 16  2  0  0  0  0
 12 30  1  0  0  0  0
 13 14  1  0  0  0  0
 14 42  1  0  0  0  0
 14 43  1  0  0  0  0
 15 17  1  0  0  0  0
 16 29  1  0  0  0  0
 17 19  2  0  0  0  0
 17 44  1  0  0  0  0
 18 20  1  0  0  0  0
 18 45  1  0  0  0  0
 18 46  1  0  0  0  0
 19 26  1  0  0  0  0
 19 47  1  0  0  0  0
 20 24  1  0  0  0  0
 20 48  1  0  0  0  0
 21 28  1  0  0  0  0
 21 49  1  0  0  0  0
 21 50  1  0  0  0  0
 21 51  1  0  0  0  0
 22 23  1  0  0  0  0
 22 52  1  0  0  0  0
 22 53  1  0  0  0  0
 23 54  1  0  0  0  0
 23 55  1  0  0  0  0
 23 56  1  0  0  0  0
 24 25  1  0  0  0  0
 24 57  1  0  0  0  0
 24 58  1  0  0  0  0
 25 59  1  0  0  0  0
 25 60  1  0  0  0  0
 26 27  2  0  0  0  0
 26 61  1  0  0  0  0
 27 62  1  0  0  0  0
 28 63  1  0  0  0  0
 28 64  1  0  0  0  0
 29 34  1  0  0  0  0
M  END
> <ConfScore>
-0.503257 

$$$$
4agq


 64 66  0  0  0  0  0  0  0  0999 V2000
  123.4395  100.9857  -40.2463 N   0  0  0  1  0  3  0  0  0  0  0  0
  123.9580  107.6030  -44.7890 N   0  3  0  1  0  4  0  0  0  0  0  0
  125.4500  111.6190  -44.1530 N   0  3  0  1  0  4  0  0  0  0  0  0
  122.4231  102.5791  -38.6780 C   0  0  0  1  0  3  0  0  0  0  0  0
  125.0042  103.1704  -44.2749 C   0  0  0  1  0  3  0  0  0  0  0  0
  124.2920  105.1887  -45.4244 C   0  0  0  1  0  3  0  0  0  0  0  0
  125.9706  102.9469  -45.2654 C   0  0  0  1  0  3  0  0  0  0  0  0
  123.3850  106.3880  -45.4850 C   0  0  0  1  0  4  0  0  0  0  0  0
  122.9790  108.7410  -44.8490 C   0  0  0  1  0  4  0  0  0  0  0  0
  124.1598  104.2833  -44.3629 C   0  0  0  1  0  3  0  0  0  0  0  0
  124.8367  102.2533  -43.1930 C   0  0  0  1  0  2  0  0  0  0  0  0
  126.1064  103.8414  -46.3364 C   0  0  0  1  0  3  0  0  0  0  0  0
  124.6556  101.5141  -42.2635 C   0  0  0  1  0  2  0  0  0  0  0  0
  124.4830  100.5705  -41.1500 C   0  0  0  1  0  4  0  0  0  0  0  0
  123.4504  102.1773  -39.5366 C   0  0  0  1  0  3  0  0  0  0  0  0
  125.2695  104.9586  -46.4042 C   0  0  0  1  0  3  0  0  0  0  0  0
  124.5434  103.0439  -39.6802 C   0  0  0  1  0  3  0  0  0  0  0  0
  123.5670  109.9230  -44.0960 C   0  0  0  1  0  4  0  0  0  0  0  0
  124.6077  104.2596  -38.9902 C   0  0  0  1  0  3  0  0  0  0  0  0
  124.9010  110.3060  -44.7320 C   0  0  0  1  0  4  0  0  0  0  0  0
  125.1637  114.1076  -43.9526 C   0  0  0  1  0  4  0  0  0  0  0  0
  125.8040  111.5799  -42.6789 C   0  0  0  1  0  4  0  0  0  0  0  0
  126.8886  110.5464  -42.4297 C   0  0  0  1  0  4  0  0  0  0  0  0
  125.9010  109.1490  -44.6010 C   0  0  0  1  0  4  0  0  0  0  0  0
  125.3410  107.9150  -45.2920 C   0  0  0  1  0  4  0  0  0  0  0  0
  123.5737  104.6360  -38.1406 C   0  0  0  1  0  3  0  0  0  0  0  0
  122.4784  103.7895  -37.9793 C   0  0  0  1  0  3  0  0  0  0  0  0
  124.5315  112.8147  -44.4413 C   0  0  0  1  0  4  0  0  0  0  0  0
  125.3708  105.8493  -47.4496 O   0  0  0  1  0  2  0  0  0  0  0  0
  127.5826  103.5465  -47.8399 I   0  0  0  1  0  1  0  0  0  0  0  0
  121.5596  101.9354  -38.5504 H   0  0  0  1  0  1  0  0  0  0  0  0
  122.6343  100.3567  -40.1187 H   0  0  0  1  0  1  0  0  0  0  0  0
  124.0600  107.3680  -43.8140 H   0  0  0  1  0  1  0  0  0  0  0  0
  126.0684  105.5728  -48.0330 H   0  0  0  1  0  1  0  0  0  0  0  0
  126.6158  102.0787  -45.2037 H   0  0  0  1  0  1  0  0  0  0  0  0
  122.4294  106.1280  -45.0054 H   0  0  0  1  0  1  0  0  0  0  0  0
  123.2086  106.6403  -46.5405 H   0  0  0  1  0  1  0  0  0  0  0  0
  126.3137  111.7932  -44.6434 H   0  0  0  1  0  1  0  0  0  0  0  0
  122.0300  108.4400  -44.3820 H   0  0  0  1  0  1  0  0  0  0  0  0
  122.8000  109.0220  -45.8970 H   0  0  0  1  0  1  0  0  0  0  0  0
  123.4001  104.4459  -43.6068 H   0  0  0  1  0  1  0  0  0  0  0  0
  124.2258   99.5817  -41.5593 H   0  0  0  1  0  1  0  0  0  0  0  0
  125.4282  100.5009  -40.5928 H   0  0  0  1  0  1  0  0  0  0  0  0
  125.3567  102.7647  -40.3402 H   0  0  0  1  0  1  0  0  0  0  0  0
  123.7270  109.6460  -43.0440 H   0  0  0  1  0  1  0  0  0  0  0  0
  122.8750  110.7760  -44.1500 H   0  0  0  1  0  1  0  0  0  0  0  0
  125.4654  104.9089  -39.1195 H   0  0  0  1  0  1  0  0  0  0  0  0
  124.7240  110.4720  -45.8050 H   0  0  0  1  0  1  0  0  0  0  0  0
  126.1318  114.2539  -44.4536 H   0  0  0  1  0  1  0  0  0  0  0  0
  125.3200  114.0505  -42.8649 H   0  0  0  1  0  1  0  0  0  0  0  0
  124.4983  114.9524  -44.1848 H   0  0  0  1  0  1  0  0  0  0  0  0
  124.9091  111.3153  -42.0965 H   0  0  0  1  0  1  0  0  0  0  0  0
  126.1662  112.5709  -42.3652 H   0  0  0  1  0  1  0  0  0  0  0  0
  127.1373  110.5261  -41.3587 H   0  0  0  1  0  1  0  0  0  0  0  0
  127.7853  110.8087  -43.0097 H   0  0  0  1  0  1  0  0  0  0  0  0
  126.5288  109.5535  -42.7409 H   0  0  0  1  0  1  0  0  0  0  0  0
  126.0690  108.9290  -43.5370 H   0  0  0  1  0  1  0  0  0  0  0  0
  126.8540  109.4330  -45.0720 H   0  0  0  1  0  1  0  0  0  0  0  0
  125.2990  108.0960  -46.3760 H   0  0  0  1  0  1  0  0  0  0  0  0
  126.0010  107.0580  -45.0890 H   0  0  0  1  0  1  0  0  0  0  0  0
  123.6199  105.5788  -37.6079 H   0  0  0  1  0  1  0  0  0  0  0  0
  121.6698  104.0688  -37.3132 H   0  0  0  1  0  1  0  0  0  0  0  0
  123.5712  112.6647  -43.9257 H   0  0  0  1  0  1  0  0  0  0  0  0
  124.3583  112.8841  -45.5258 H   0  0  0  1  0  1  0  0  0  0  0  0
  1 14  1  0  0  0  0
  1 15  1  0  0  0  0
  1 32  1  0  0  0  0
  2  8  1  0  0  0  0
  2  9  1  0  0  0  0
  2 25  1  0  0  0  0
  2 33  1  0  0  0  0
  3 20  1  0  0  0  0
  3 22  1  0  0  0  0
  3 28  1  0  0  0  0
  3 38  1  0  0  0  0
  4 15  2  0  0  0  0
  4 27  1  0  0  0  0
  4 31  1  0  0  0  0
  5  7  2  0  0  0  0
  5 10  1  0  0  0  0
  5 11  1  0  0  0  0
  6  8  1  0  0  0  0
  6 10  2  0  0  0  0
  6 16  1  0  0  0  0
  7 12  1  0  0  0  0
  7 35  1  0  0  0  0
  8 36  1  0  0  0  0
  8 37  1  0  0  0  0
  9 18  1  0  0  0  0
  9 39  1  0  0  0  0
  9 40  1  0  0  0  0
 10 41  1  0  0  0  0
 11 13  3  0  0  0  0
 12 16  2  0  0  0  0
 12 30  1  0  0  0  0
 13 14  1  0  0  0  0
 14 42  1  0  0  0  0
 14 43  1  0  0  0  0
 15 17  1  0  0  0  0
 16 29  1  0  0  0  0
 17 19  2  0  0  0  0
 17 44  1  0  0  0  0
 18 20  1  0  0  0  0
 18 45  1  0  0  0  0
 18 46  1  0  0  0  0
 19 26  1  0  0  0  0
 19 47  1  0  0  0  0
 20 24  1  0  0  0  0
 20 48  1  0  0  0  0
 21 28  1  0  0  0  0
 21 49  1  0  0  0  0
 21 50  1  0  0  0  0
 21 51  1  0  0  0  0
 22 23  1  0  0  0  0
 22 52  1  0  0  0  0
 22 53  1  0  0  0  0
 23 54  1  0  0  0  0
 23 55  1  0  0  0  0
 23 56  1  0  0  0  0
 24 25  1  0  0  0  0
 24 57  1  0  0  0  0
 24 58  1  0  0  0  0
 25 59  1  0  0  0  0
 25 60  1  0  0  0  0
 26 27  2  0  0  0  0
 26 61  1  0  0  0  0
 27 62  1  0  0  0  0
 28 63  1  0  0  0  0
 28 64  1  0  0  0  0
 29 34  1  0  0  0  0
M  END
> <ConfScore>
-0.501481 

$$$$
4agq


 64 66  0  0  0  0  0  0  0  0999 V2000
  126.7277  102.5361  -51.0186 N   0  0  0  1  0  3  0  0  0  0  0  0
  123.9580  107.6030  -44.7890 N   0  3  0  1  0  4  0  0  0  0  0  0
  125.4500  111.6190  -44.1530 N   0  3  0  1  0  4  0  0  0  0  0  0
  126.6129  104.5543  -52.4133 C   0  0  0  1  0  3  0  0  0  0  0  0
  125.5807  103.4243  -46.3984 C   0  0  0  1  0  3  0  0  0  0  0  0
  124.2503  105.1645  -45.3478 C   0  0  0  1  0  3  0  0  0  0  0  0
  125.8577  102.8751  -45.1388 C   0  0  0  1  0  3  0  0  0  0  0  0
  123.3850  106.3880  -45.4850 C   0  0  0  1  0  4  0  0  0  0  0  0
  122.9790  108.7410  -44.8490 C   0  0  0  1  0  4  0  0  0  0  0  0
  124.7882  104.5736  -46.4991 C   0  0  0  1  0  3  0  0  0  0  0  0
  126.1316  102.8523  -47.5854 C   0  0  0  1  0  2  0  0  0  0  0  0
  125.3319  103.4625  -43.9794 C   0  0  0  1  0  3  0  0  0  0  0  0
  126.5691  102.4101  -48.6132 C   0  0  0  1  0  2  0  0  0  0  0  0
  127.1358  101.8218  -49.8349 C   0  0  0  1  0  4  0  0  0  0  0  0
  126.9962  103.8767  -51.2524 C   0  0  0  1  0  3  0  0  0  0  0  0
  124.5274  104.5995  -44.0938 C   0  0  0  1  0  3  0  0  0  0  0  0
  127.6958  104.6089  -50.2825 C   0  0  0  1  0  3  0  0  0  0  0  0
  123.5670  109.9230  -44.0960 C   0  0  0  1  0  4  0  0  0  0  0  0
  127.9955  105.9635  -50.4649 C   0  0  0  1  0  3  0  0  0  0  0  0
  124.9010  110.3060  -44.7320 C   0  0  0  1  0  4  0  0  0  0  0  0
  125.1637  114.1076  -43.9526 C   0  0  0  1  0  4  0  0  0  0  0  0
  125.8040  111.5799  -42.6789 C   0  0  0  1  0  4  0  0  0  0  0  0
  126.8094  110.4731  -42.4126 C   0  0  0  1  0  4  0  0  0  0  0  0
  125.9010  109.1490  -44.6010 C   0  0  0  1  0  4  0  0  0  0  0  0
  125.3410  107.9150  -45.2920 C   0  0  0  1  0  4  0  0  0  0  0  0
  127.6019  106.6155  -51.6280 C   0  0  0  1  0  3  0  0  0  0  0  0
  126.9025  105.9091  -52.6049 C   0  0  0  1  0  3  0  0  0  0  0  0
  124.5315  112.8147  -44.4413 C   0  0  0  1  0  4  0  0  0  0  0  0
  124.0057  105.2060  -42.9729 O   0  0  0  1  0  2  0  0  0  0  0  0
  125.7095  102.6364  -42.0555 I   0  0  0  1  0  1  0  0  0  0  0  0
  126.0770  104.0150  -53.1869 H   0  0  0  1  0  1  0  0  0  0  0  0
  126.2024  102.0180  -51.7368 H   0  0  0  1  0  1  0  0  0  0  0  0
  124.0600  107.3680  -43.8140 H   0  0  0  1  0  1  0  0  0  0  0  0
  124.2710  104.7211  -42.1996 H   0  0  0  1  0  1  0  0  0  0  0  0
  126.4814  101.9927  -45.0602 H   0  0  0  1  0  1  0  0  0  0  0  0
  122.3982  106.1686  -45.0505 H   0  0  0  1  0  1  0  0  0  0  0  0
  123.2717  106.6183  -46.5541 H   0  0  0  1  0  1  0  0  0  0  0  0
  126.3137  111.7932  -44.6434 H   0  0  0  1  0  1  0  0  0  0  0  0
  122.0300  108.4400  -44.3820 H   0  0  0  1  0  1  0  0  0  0  0  0
  122.8000  109.0220  -45.8970 H   0  0  0  1  0  1  0  0  0  0  0  0
  124.5894  105.0090  -47.4718 H   0  0  0  1  0  1  0  0  0  0  0  0
  128.2339  101.8479  -49.7651 H   0  0  0  1  0  1  0  0  0  0  0  0
  126.7994  100.7782  -49.9165 H   0  0  0  1  0  1  0  0  0  0  0  0
  128.0104  104.1138  -49.3710 H   0  0  0  1  0  1  0  0  0  0  0  0
  123.7270  109.6460  -43.0440 H   0  0  0  1  0  1  0  0  0  0  0  0
  122.8750  110.7760  -44.1500 H   0  0  0  1  0  1  0  0  0  0  0  0
  128.5363  106.5047  -49.6978 H   0  0  0  1  0  1  0  0  0  0  0  0
  124.7240  110.4720  -45.8050 H   0  0  0  1  0  1  0  0  0  0  0  0
  126.1318  114.2539  -44.4536 H   0  0  0  1  0  1  0  0  0  0  0  0
  125.3200  114.0505  -42.8649 H   0  0  0  1  0  1  0  0  0  0  0  0
  124.4983  114.9524  -44.1848 H   0  0  0  1  0  1  0  0  0  0  0  0
  124.8935  111.3930  -42.0907 H   0  0  0  1  0  1  0  0  0  0  0  0
  126.2397  112.5466  -42.3835 H   0  0  0  1  0  1  0  0  0  0  0  0
  127.0588  110.4535  -41.3418 H   0  0  0  1  0  1  0  0  0  0  0  0
  127.7216  110.6576  -42.9984 H   0  0  0  1  0  1  0  0  0  0  0  0
  126.3760  109.5044  -42.7055 H   0  0  0  1  0  1  0  0  0  0  0  0
  126.0690  108.9290  -43.5370 H   0  0  0  1  0  1  0  0  0  0  0  0
  126.8540  109.4330  -45.0720 H   0  0  0  1  0  1  0  0  0  0  0  0
  125.2990  108.0960  -46.3760 H   0  0  0  1  0  1  0  0  0  0  0  0
  126.0010  107.0580  -45.0890 H   0  0  0  1  0  1  0  0  0  0  0  0
  127.8361  107.6637  -51.7727 H   0  0  0  1  0  1  0  0  0  0  0  0
  126.5834  106.4091  -53.5125 H   0  0  0  1  0  1  0  0  0  0  0  0
  123.5712  112.6647  -43.9257 H   0  0  0  1  0  1  0  0  0  0  0  0
  124.3583  112.8841  -45.5258 H   0  0  0  1  0  1  0  0  0  0  0  0
  1 14  1  0  0  0  0
  1 15  1  0  0  0  0
  1 32  1  0  0  0  0
  2  8  1  0  0  0  0
  2  9  1  0  0  0  0
  2 25  1  0  0  0  0
  2 33  1  0  0  0  0
  3 20  1  0  0  0  0
  3 22  1  0  0  0  0
  3 28  1  0  0  0  0
  3 38  1  0  0  0  0
  4 15  2  0  0  0  0
  4 27  1  0  0  0  0
  4 31  1  0  0  0  0
  5  7  2  0  0  0  0
  5 10  1  0  0  0  0
  5 11  1  0  0  0  0
  6  8  1  0  0  0  0
  6 10  2  0  0  0  0
  6 16  1  0  0  0  0
  7 12  1  0  0  0  0
  7 35  1  0  0  0  0
  8 36  1  0  0  0  0
  8 37  1  0  0  0  0
  9 18  1  0  0  0  0
  9 39  1  0  0  0  0
  9 40  1  0  0  0  0
 10 41  1  0  0  0  0
 11 13  3  0  0  0  0
 12 16  2  0  0  0  0
 12 30  1  0  0  0  0
 13 14  1  0  0  0  0
 14 42  1  0  0  0  0
 14 43  1  0  0  0  0
 15 17  1  0  0  0  0
 16 29  1  0  0  0  0
 17 19  2  0  0  0  0
 17 44  1  0  0  0  0
 18 20  1  0  0  0  0
 18 45  1  0  0  0  0
 18 46  1  0  0  0  0
 19 26  1  0  0  0  0
 19 47  1  0  0  0  0
 20 24  1  0  0  0  0
 20 48  1  0  0  0  0
 21 28  1  0  0  0  0
 21 49  1  0  0  0  0
 21 50  1  0  0  0  0
 21 51  1  0  0  0  0
 22 23  1  0  0  0  0
 22 52  1  0  0  0  0
 22 53  1  0  0  0  0
 23 54  1  0  0  0  0
 23 55  1  0  0  0  0
 23 56  1  0  0  0  0
 24 25  1  0  0  0  0
 24 57  1  0  0  0  0
 24 58  1  0  0  0  0
 25 59  1  0  0  0  0
 25 60  1  0  0  0  0
 26 27  2  0  0  0  0
 26 61  1  0  0  0  0
 27 62  1  0  0  0  0
 28 63  1  0  0  0  0
 28 64  1  0  0  0  0
 29 34  1  0  0  0  0
M  END
> <ConfScore>
-0.498769 

$$$$
4agq


 64 66  0  0  0  0  0  0  0  0999 V2000
  124.2326   99.8365  -49.0893 N   0  0  0  1  0  3  0  0  0  0  0  0
  123.9580  107.6030  -44.7890 N   0  3  0  1  0  4  0  0  0  0  0  0
  125.4500  111.6190  -44.1530 N   0  3  0  1  0  4  0  0  0  0  0  0
  122.5624  100.6153  -50.7127 C   0  0  0  1  0  3  0  0  0  0  0  0
  124.4007  102.7364  -45.2146 C   0  0  0  1  0  3  0  0  0  0  0  0
  123.8758  105.0884  -44.9066 C   0  0  0  1  0  3  0  0  0  0  0  0
  124.7731  102.6426  -43.8665 C   0  0  0  1  0  3  0  0  0  0  0  0
  123.3850  106.3880  -45.4850 C   0  0  0  1  0  4  0  0  0  0  0  0
  122.9790  108.7410  -44.8490 C   0  0  0  1  0  4  0  0  0  0  0  0
  123.9646  103.9608  -45.7341 C   0  0  0  1  0  3  0  0  0  0  0  0
  124.4994  101.6071  -46.0833 C   0  0  0  1  0  2  0  0  0  0  0  0
  124.6964  103.7659  -43.0312 C   0  0  0  1  0  3  0  0  0  0  0  0
  124.5629  100.6886  -46.8550 C   0  0  0  1  0  2  0  0  0  0  0  0
  124.6644   99.5268  -47.7493 C   0  0  0  1  0  4  0  0  0  0  0  0
  122.9535  100.2599  -49.4186 C   0  0  0  1  0  3  0  0  0  0  0  0
  124.2427  104.9788  -43.5568 C   0  0  0  1  0  3  0  0  0  0  0  0
  121.9855  100.3482  -48.4080 C   0  0  0  1  0  3  0  0  0  0  0  0
  123.5670  109.9230  -44.0960 C   0  0  0  1  0  4  0  0  0  0  0  0
  120.6797  100.7702  -48.6816 C   0  0  0  1  0  3  0  0  0  0  0  0
  124.9010  110.3060  -44.7320 C   0  0  0  1  0  4  0  0  0  0  0  0
  125.1637  114.1076  -43.9526 C   0  0  0  1  0  4  0  0  0  0  0  0
  125.8040  111.5799  -42.6789 C   0  0  0  1  0  4  0  0  0  0  0  0
  126.3345  112.9316  -42.2334 C   0  0  0  1  0  4  0  0  0  0  0  0
  125.9010  109.1490  -44.6010 C   0  0  0  1  0  4  0  0  0  0  0  0
  125.3410  107.9150  -45.2920 C   0  0  0  1  0  4  0  0  0  0  0  0
  120.3149  101.1169  -49.9776 C   0  0  0  1  0  3  0  0  0  0  0  0
  121.2591  101.0341  -50.9993 C   0  0  0  1  0  3  0  0  0  0  0  0
  124.5315  112.8147  -44.4413 C   0  0  0  1  0  4  0  0  0  0  0  0
  124.1669  106.1027  -42.7646 O   0  0  0  1  0  2  0  0  0  0  0  0
  125.2263  103.6495  -40.9740 I   0  0  0  1  0  1  0  0  0  0  0  0
  123.2892  100.5658  -51.5163 H   0  0  0  1  0  1  0  0  0  0  0  0
  124.9176   99.7362  -49.8514 H   0  0  0  1  0  1  0  0  0  0  0  0
  124.0600  107.3680  -43.8140 H   0  0  0  1  0  1  0  0  0  0  0  0
  124.4427  105.8852  -41.8814 H   0  0  0  1  0  1  0  0  0  0  0  0
  125.1224  101.6977  -43.4676 H   0  0  0  1  0  1  0  0  0  0  0  0
  122.2887  106.4181  -45.3960 H   0  0  0  1  0  1  0  0  0  0  0  0
  123.6677  106.4274  -46.5468 H   0  0  0  1  0  1  0  0  0  0  0  0
  126.3137  111.7932  -44.6434 H   0  0  0  1  0  1  0  0  0  0  0  0
  122.0300  108.4400  -44.3820 H   0  0  0  1  0  1  0  0  0  0  0  0
  122.8000  109.0220  -45.8970 H   0  0  0  1  0  1  0  0  0  0  0  0
  123.6944  104.0377  -46.7811 H   0  0  0  1  0  1  0  0  0  0  0  0
  125.7131   99.1944  -47.7819 H   0  0  0  1  0  1  0  0  0  0  0  0
  124.0363   98.7163  -47.3524 H   0  0  0  1  0  1  0  0  0  0  0  0
  122.2555  100.0825  -47.3924 H   0  0  0  1  0  1  0  0  0  0  0  0
  123.7270  109.6460  -43.0440 H   0  0  0  1  0  1  0  0  0  0  0  0
  122.8750  110.7760  -44.1500 H   0  0  0  1  0  1  0  0  0  0  0  0
  119.9520  100.8275  -47.8810 H   0  0  0  1  0  1  0  0  0  0  0  0
  124.7240  110.4720  -45.8050 H   0  0  0  1  0  1  0  0  0  0  0  0
  126.1318  114.2539  -44.4536 H   0  0  0  1  0  1  0  0  0  0  0  0
  125.3200  114.0505  -42.8649 H   0  0  0  1  0  1  0  0  0  0  0  0
  124.4983  114.9524  -44.1848 H   0  0  0  1  0  1  0  0  0  0  0  0
  126.5745  110.8133  -42.5097 H   0  0  0  1  0  1  0  0  0  0  0  0
  124.9045  111.3313  -42.0951 H   0  0  0  1  0  1  0  0  0  0  0  0
  126.5881  112.8921  -41.1642 H   0  0  0  1  0  1  0  0  0  0  0  0
  125.5660  113.7002  -42.4002 H   0  0  0  1  0  1  0  0  0  0  0  0
  127.2354  113.1825  -42.8144 H   0  0  0  1  0  1  0  0  0  0  0  0
  126.0690  108.9290  -43.5370 H   0  0  0  1  0  1  0  0  0  0  0  0
  126.8540  109.4330  -45.0720 H   0  0  0  1  0  1  0  0  0  0  0  0
  125.2990  108.0960  -46.3760 H   0  0  0  1  0  1  0  0  0  0  0  0
  126.0010  107.0580  -45.0890 H   0  0  0  1  0  1  0  0  0  0  0  0
  119.3050  101.4474  -50.1910 H   0  0  0  1  0  1  0  0  0  0  0  0
  120.9839  101.2941  -52.0153 H   0  0  0  1  0  1  0  0  0  0  0  0
  123.5712  112.6647  -43.9257 H   0  0  0  1  0  1  0  0  0  0  0  0
  124.3583  112.8841  -45.5258 H   0  0  0  1  0  1  0  0  0  0  0  0
  1 14  1  0  0  0  0
  1 15  1  0  0  0  0
  1 32  1  0  0  0  0
  2  8  1  0  0  0  0
  2  9  1  0  0  0  0
  2 25  1  0  0  0  0
  2 33  1  0  0  0  0
  3 20  1  0  0  0  0
  3 22  1  0  0  0  0
  3 28  1  0  0  0  0
  3 38  1  0  0  0  0
  4 15  2  0  0  0  0
  4 27  1  0  0  0  0
  4 31  1  0  0  0  0
  5  7  2  0  0  0  0
  5 10  1  0  0  0  0
  5 11  1  0  0  0  0
  6  8  1  0  0  0  0
  6 10  2  0  0  0  0
  6 16  1  0  0  0  0
  7 12  1  0  0  0  0
  7 35  1  0  0  0  0
  8 36  1  0  0  0  0
  8 37  1  0  0  0  0
  9 18  1  0  0  0  0
  9 39  1  0  0  0  0
  9 40  1  0  0  0  0
 10 41  1  0  0  0  0
 11 13  3  0  0  0  0
 12 16  2  0  0  0  0
 12 30  1  0  0  0  0
 13 14  1  0  0  0  0
 14 42  1  0  0  0  0
 14 43  1  0  0  0  0
 15 17  1  0  0  0  0
 16 29  1  0  0  0  0
 17 19  2  0  0  0  0
 17 44  1  0  0  0  0
 18 20  1  0  0  0  0
 18 45  1  0  0  0  0
 18 46  1  0  0  0  0
 19 26  1  0  0  0  0
 19 47  1  0  0  0  0
 20 24  1  0  0  0  0
 20 48  1  0  0  0  0
 21 28  1  0  0  0  0
 21 49  1  0  0  0  0
 21 50  1  0  0  0  0
 21 51  1  0  0  0  0
 22 23  1  0  0  0  0
 22 52  1  0  0  0  0
 22 53  1  0  0  0  0
 23 54  1  0  0  0  0
 23 55  1  0  0  0  0
 23 56  1  0  0  0  0
 24 25  1  0  0  0  0
 24 57  1  0  0  0  0
 24 58  1  0  0  0  0
 25 59  1  0  0  0  0
 25 60  1  0  0  0  0
 26 27  2  0  0  0  0
 26 61  1  0  0  0  0
 27 62  1  0  0  0  0
 28 63  1  0  0  0  0
 28 64  1  0  0  0  0
 29 34  1  0  0  0  0
M  END
> <ConfScore>
-0.496698 

$$$$
4agq


 64 66  0  0  0  0  0  0  0  0999 V2000
  123.9840  100.6716  -50.3425 N   0  0  0  1  0  3  0  0  0  0  0  0
  123.9580  107.6030  -44.7890 N   0  3  0  1  0  4  0  0  0  0  0  0
  125.4500  111.6190  -44.1530 N   0  3  0  1  0  4  0  0  0  0  0  0
  123.4444  101.1447  -52.6912 C   0  0  0  1  0  3  0  0  0  0  0  0
  125.0109  103.0386  -46.2445 C   0  0  0  1  0  3  0  0  0  0  0  0
  124.2503  105.1645  -45.3478 C   0  0  0  1  0  3  0  0  0  0  0  0
  125.8375  102.8622  -45.1262 C   0  0  0  1  0  3  0  0  0  0  0  0
  123.3850  106.3880  -45.4850 C   0  0  0  1  0  4  0  0  0  0  0  0
  122.9790  108.7410  -44.8490 C   0  0  0  1  0  4  0  0  0  0  0  0
  124.2288  104.1939  -46.3584 C   0  0  0  1  0  3  0  0  0  0  0  0
  124.9846  102.0735  -47.2969 C   0  0  0  1  0  2  0  0  0  0  0  0
  125.8735  103.8305  -44.1129 C   0  0  0  1  0  3  0  0  0  0  0  0
  124.9252  101.2929  -48.2082 C   0  0  0  1  0  2  0  0  0  0  0  0
  124.8978  100.3000  -49.2914 C   0  0  0  1  0  4  0  0  0  0  0  0
  124.3494  100.8432  -51.6694 C   0  0  0  1  0  3  0  0  0  0  0  0
  125.0749  104.9715  -44.2292 C   0  0  0  1  0  3  0  0  0  0  0  0
  125.6984  100.7049  -52.0263 C   0  0  0  1  0  3  0  0  0  0  0  0
  123.5670  109.9230  -44.0960 C   0  0  0  1  0  4  0  0  0  0  0  0
  126.1245  100.8657  -53.3494 C   0  0  0  1  0  3  0  0  0  0  0  0
  124.9010  110.3060  -44.7320 C   0  0  0  1  0  4  0  0  0  0  0  0
  125.1637  114.1076  -43.9526 C   0  0  0  1  0  4  0  0  0  0  0  0
  125.8040  111.5799  -42.6789 C   0  0  0  1  0  4  0  0  0  0  0  0
  126.3345  112.9316  -42.2334 C   0  0  0  1  0  4  0  0  0  0  0  0
  125.9010  109.1490  -44.6010 C   0  0  0  1  0  4  0  0  0  0  0  0
  125.3410  107.9150  -45.2920 C   0  0  0  1  0  4  0  0  0  0  0  0
  125.2048  101.1669  -54.3476 C   0  0  0  1  0  3  0  0  0  0  0  0
  123.8589  101.3125  -54.0164 C   0  0  0  1  0  3  0  0  0  0  0  0
  124.5315  112.8147  -44.4413 C   0  0  0  1  0  4  0  0  0  0  0  0
  125.0967  105.9458  -43.2561 O   0  0  0  1  0  2  0  0  0  0  0  0
  127.0951  103.5789  -42.3893 I   0  0  0  1  0  1  0  0  0  0  0  0
  122.3922  101.2508  -52.4503 H   0  0  0  1  0  1  0  0  0  0  0  0
  122.9964  100.8198  -50.0921 H   0  0  0  1  0  1  0  0  0  0  0  0
  124.0600  107.3680  -43.8140 H   0  0  0  1  0  1  0  0  0  0  0  0
  125.6930  105.6860  -42.5630 H   0  0  0  1  0  1  0  0  0  0  0  0
  126.4521  101.9737  -45.0442 H   0  0  0  1  0  1  0  0  0  0  0  0
  122.3982  106.1686  -45.0505 H   0  0  0  1  0  1  0  0  0  0  0  0
  123.2717  106.6183  -46.5541 H   0  0  0  1  0  1  0  0  0  0  0  0
  126.3137  111.7932  -44.6434 H   0  0  0  1  0  1  0  0  0  0  0  0
  122.0300  108.4400  -44.3820 H   0  0  0  1  0  1  0  0  0  0  0  0
  122.8000  109.0220  -45.8970 H   0  0  0  1  0  1  0  0  0  0  0  0
  123.6037  104.3388  -47.2322 H   0  0  0  1  0  1  0  0  0  0  0  0
  125.9093  100.2095  -49.7156 H   0  0  0  1  0  1  0  0  0  0  0  0
  124.5869   99.3301  -48.8773 H   0  0  0  1  0  1  0  0  0  0  0  0
  126.4269  100.4688  -51.2592 H   0  0  0  1  0  1  0  0  0  0  0  0
  123.7270  109.6460  -43.0440 H   0  0  0  1  0  1  0  0  0  0  0  0
  122.8750  110.7760  -44.1500 H   0  0  0  1  0  1  0  0  0  0  0  0
  127.1736  100.7544  -53.5960 H   0  0  0  1  0  1  0  0  0  0  0  0
  124.7240  110.4720  -45.8050 H   0  0  0  1  0  1  0  0  0  0  0  0
  126.1318  114.2539  -44.4536 H   0  0  0  1  0  1  0  0  0  0  0  0
  125.3200  114.0505  -42.8649 H   0  0  0  1  0  1  0  0  0  0  0  0
  124.4983  114.9524  -44.1848 H   0  0  0  1  0  1  0  0  0  0  0  0
  126.5745  110.8133  -42.5097 H   0  0  0  1  0  1  0  0  0  0  0  0
  124.9045  111.3313  -42.0951 H   0  0  0  1  0  1  0  0  0  0  0  0
  126.5881  112.8921  -41.1642 H   0  0  0  1  0  1  0  0  0  0  0  0
  125.5660  113.7002  -42.4002 H   0  0  0  1  0  1  0  0  0  0  0  0
  127.2354  113.1825  -42.8144 H   0  0  0  1  0  1  0  0  0  0  0  0
  126.0690  108.9290  -43.5370 H   0  0  0  1  0  1  0  0  0  0  0  0
  126.8540  109.4330  -45.0720 H   0  0  0  1  0  1  0  0  0  0  0  0
  125.2990  108.0960  -46.3760 H   0  0  0  1  0  1  0  0  0  0  0  0
  126.0010  107.0580  -45.0890 H   0  0  0  1  0  1  0  0  0  0  0  0
  125.5323  101.2885  -55.3736 H   0  0  0  1  0  1  0  0  0  0  0  0
  123.1338  101.5553  -54.7851 H   0  0  0  1  0  1  0  0  0  0  0  0
  123.5712  112.6647  -43.9257 H   0  0  0  1  0  1  0  0  0  0  0  0
  124.3583  112.8841  -45.5258 H   0  0  0  1  0  1  0  0  0  0  0  0
  1 14  1  0  0  0  0
  1 15  1  0  0  0  0
  1 32  1  0  0  0  0
  2  8  1  0  0  0  0
  2  9  1  0  0  0  0
  2 25  1  0  0  0  0
  2 33  1  0  0  0  0
  3 20  1  0  0  0  0
  3 22  1  0  0  0  0
  3 28  1  0  0  0  0
  3 38  1  0  0  0  0
  4 15  2  0  0  0  0
  4 27  1  0  0  0  0
  4 31  1  0  0  0  0
  5  7  2  0  0  0  0
  5 10  1  0  0  0  0
  5 11  1  0  0  0  0
  6  8  1  0  0  0  0
  6 10  2  0  0  0  0
  6 16  1  0  0  0  0
  7 12  1  0  0  0  0
  7 35  1  0  0  0  0
  8 36  1  0  0  0  0
  8 37  1  0  0  0  0
  9 18  1  0  0  0  0
  9 39  1  0  0  0  0
  9 40  1  0  0  0  0
 10 41  1  0  0  0  0
 11 13  3  0  0  0  0
 12 16  2  0  0  0  0
 12 30  1  0  0  0  0
 13 14  1  0  0  0  0
 14 42  1  0  0  0  0
 14 43  1  0  0  0  0
 15 17  1  0  0  0  0
 16 29  1  0  0  0  0
 17 19  2  0  0  0  0
 17 44  1  0  0  0  0
 18 20  1  0  0  0  0
 18 45  1  0  0  0  0
 18 46  1  0  0  0  0
 19 26  1  0  0  0  0
 19 47  1  0  0  0  0
 20 24  1  0  0  0  0
 20 48  1  0  0  0  0
 21 28  1  0  0  0  0
 21 49  1  0  0  0  0
 21 50  1  0  0  0  0
 21 51  1  0  0  0  0
 22 23  1  0  0  0  0
 22 52  1  0  0  0  0
 22 53  1  0  0  0  0
 23 54  1  0  0  0  0
 23 55  1  0  0  0  0
 23 56  1  0  0  0  0
 24 25  1  0  0  0  0
 24 57  1  0  0  0  0
 24 58  1  0  0  0  0
 25 59  1  0  0  0  0
 25 60  1  0  0  0  0
 26 27  2  0  0  0  0
 26 61  1  0  0  0  0
 27 62  1  0  0  0  0
 28 63  1  0  0  0  0
 28 64  1  0  0  0  0
 29 34  1  0  0  0  0
M  END
> <ConfScore>
-0.490755 

$$$$
4agq


 64 66  0  0  0  0  0  0  0  0999 V2000
    0.4530   -2.0284    6.8154 N   0  0  0  1  0  3  0  0  0  0  0  0
    2.5209    6.6299    6.3322 N   0  3  0  1  0  4  0  0  0  0  0  0
    1.3441    8.7890    9.1245 N   0  3  0  1  0  4  0  0  0  0  0  0
    2.8771   -1.6901    7.0172 C   0  0  0  1  0  3  0  0  0  0  0  0
    1.5599    2.0885    4.5182 C   0  0  0  1  0  3  0  0  0  0  0  0
    2.3266    4.2519    5.3146 C   0  0  0  1  0  3  0  0  0  0  0  0
    1.5594    2.5726    3.2027 C   0  0  0  1  0  3  0  0  0  0  0  0
    2.7438    5.1386    6.4710 C   0  0  0  1  0  4  0  0  0  0  0  0
    1.0783    6.9623    6.6507 C   0  0  0  1  0  4  0  0  0  0  0  0
    1.9317    2.9321    5.5715 C   0  0  0  1  0  3  0  0  0  0  0  0
    1.1442    0.7535    4.8090 C   0  0  0  1  0  2  0  0  0  0  0  0
    1.9445    3.8936    2.9345 C   0  0  0  1  0  3  0  0  0  0  0  0
    0.8045   -0.3597    5.1069 C   0  0  0  1  0  2  0  0  0  0  0  0
    0.3768   -1.7335    5.4065 C   0  0  0  1  0  4  0  0  0  0  0  0
    1.6241   -1.9929    7.5578 C   0  0  0  1  0  3  0  0  0  0  0  0
    2.3307    4.7212    3.9923 C   0  0  0  1  0  3  0  0  0  0  0  0
    1.5684   -2.2797    8.9292 C   0  0  0  1  0  3  0  0  0  0  0  0
    0.8308    8.4545    6.7078 C   0  0  0  1  0  4  0  0  0  0  0  0
    2.7177   -2.2601    9.7272 C   0  0  0  1  0  3  0  0  0  0  0  0
    1.7396    9.1749    7.6909 C   0  0  0  1  0  4  0  0  0  0  0  0
    0.2605   11.0407    9.3916 C   0  0  0  1  0  4  0  0  0  0  0  0
    1.1784    7.3024    9.3738 C   0  0  0  1  0  4  0  0  0  0  0  0
   -0.0231    6.7755    8.6086 C   0  0  0  1  0  4  0  0  0  0  0  0
    3.1859    8.7850    7.4475 C   0  0  0  1  0  4  0  0  0  0  0  0
    3.3964    7.2849    7.3752 C   0  0  0  1  0  4  0  0  0  0  0  0
    3.9524   -1.9544    9.1660 C   0  0  0  1  0  3  0  0  0  0  0  0
    4.0321   -1.6627    7.8055 C   0  0  0  1  0  3  0  0  0  0  0  0
    0.1003    9.5453    9.6118 C   0  0  0  1  0  4  0  0  0  0  0  0
    2.7033    6.0269    3.7624 O   0  0  0  1  0  2  0  0  0  0  0  0
    1.9826    4.6497    0.9461 I   0  0  0  1  0  1  0  0  0  0  0  0
    2.9562   -1.4711    5.9579 H   0  0  0  1  0  1  0  0  0  0  0  0
   -0.4180   -2.2826    7.3021 H   0  0  0  1  0  1  0  0  0  0  0  0
    2.7338    6.9425    5.3977 H   0  0  0  1  0  1  0  0  0  0  0  0
    2.6605    6.2075    2.8301 H   0  0  0  1  0  1  0  0  0  0  0  0
    1.2596    1.9231    2.3889 H   0  0  0  1  0  1  0  0  0  0  0  0
    2.1860    4.8045    7.3586 H   0  0  0  1  0  1  0  0  0  0  0  0
    3.8198    4.9815    6.6332 H   0  0  0  1  0  1  0  0  0  0  0  0
    2.1105    9.0867    9.7084 H   0  0  0  1  0  1  0  0  0  0  0  0
    0.8218    6.5240    7.6261 H   0  0  0  1  0  1  0  0  0  0  0  0
    0.4352    6.5270    5.8721 H   0  0  0  1  0  1  0  0  0  0  0  0
    1.9141    2.5632    6.5908 H   0  0  0  1  0  1  0  0  0  0  0  0
   -0.6640   -1.8620    5.0724 H   0  0  0  1  0  1  0  0  0  0  0  0
    1.0249   -2.4347    4.8615 H   0  0  0  1  0  1  0  0  0  0  0  0
    0.6130   -2.5211    9.3807 H   0  0  0  1  0  1  0  0  0  0  0  0
   -0.2132    8.6243    7.0082 H   0  0  0  1  0  1  0  0  0  0  0  0
    0.9973    8.8749    5.7054 H   0  0  0  1  0  1  0  0  0  0  0  0
    2.6446   -2.4845   10.7845 H   0  0  0  1  0  1  0  0  0  0  0  0
    1.6289   10.2615    7.5593 H   0  0  0  1  0  1  0  0  0  0  0  0
    0.4193   11.2381    8.3214 H   0  0  0  1  0  1  0  0  0  0  0  0
    1.1279   11.4041    9.9629 H   0  0  0  1  0  1  0  0  0  0  0  0
   -0.6476   11.5611    9.7306 H   0  0  0  1  0  1  0  0  0  0  0  0
    1.0292    7.1280   10.4496 H   0  0  0  1  0  1  0  0  0  0  0  0
    2.0840    6.7740    9.0386 H   0  0  0  1  0  1  0  0  0  0  0  0
   -0.1342    5.6977    8.7964 H   0  0  0  1  0  1  0  0  0  0  0  0
    0.1234    6.9472    7.5324 H   0  0  0  1  0  1  0  0  0  0  0  0
   -0.9311    7.3008    8.9428 H   0  0  0  1  0  1  0  0  0  0  0  0
    3.7982    9.1844    8.2686 H   0  0  0  1  0  1  0  0  0  0  0  0
    3.5125    9.2301    6.4957 H   0  0  0  1  0  1  0  0  0  0  0  0
    4.4494    7.0877    7.1266 H   0  0  0  1  0  1  0  0  0  0  0  0
    3.1628    6.8476    8.3578 H   0  0  0  1  0  1  0  0  0  0  0  0
    4.8444   -1.9421    9.7816 H   0  0  0  1  0  1  0  0  0  0  0  0
    4.9883   -1.4150    7.3585 H   0  0  0  1  0  1  0  0  0  0  0  0
   -0.0423    9.3516   10.6855 H   0  0  0  1  0  1  0  0  0  0  0  0
   -0.7799    9.1900    9.0552 H   0  0  0  1  0  1  0  0  0  0  0  0
  1 14  1  0  0  0  0
  1 15  1  0  0  0  0
  1 32  1  0  0  0  0
  2  8  1  0  0  0  0
  2  9  1  0  0  0  0
  2 25  1  0  0  0  0
  2 33  1  0  0  0  0
  3 20  1  0  0  0  0
  3 22  1  0  0  0  0
  3 28  1  0  0  0  0
  3 38  1  0  0  0  0
  4 15  2  0  0  0  0
  4 27  1  0  0  0  0
  4 31  1  0  0  0  0
  5  7  2  0  0  0  0
  5 10  1  0  0  0  0
  5 11  1  0  0  0  0
  6  8  1  0  0  0  0
  6 10  2  0  0  0  0
  6 16  1  0  0  0  0
  7 12  1  0  0  0  0
  7 35  1  0  0  0  0
  8 36  1  0  0  0  0
  8 37  1  0  0  0  0
  9 18  1  0  0  0  0
  9 39  1  0  0  0  0
  9 40  1  0  0  0  0
 10 41  1  0  0  0  0
 11 13  3  0  0  0  0
 12 16  2  0  0  0  0
 12 30  1  0  0  0  0
 13 14  1  0  0  0  0
 14 42  1  0  0  0  0
 14 43  1  0  0  0  0
 15 17  1  0  0  0  0
 16 29  1  0  0  0  0
 17 19  2  0  0  0  0
 17 44  1  0  0  0  0
 18 20  1  0  0  0  0
 18 45  1  0  0  0  0
 18 46  1  0  0  0  0
 19 26  1  0  0  0  0
 19 47  1  0  0  0  0
 20 24  1  0  0  0  0
 20 48  1  0  0  0  0
 21 28  1  0  0  0  0
 21 49  1  0  0  0  0
 21 50  1  0  0  0  0
 21 51  1  0  0  0  0
 22 23  1  0  0  0  0
 22 52  1  0  0  0  0
 22 53  1  0  0  0  0
 23 54  1  0  0  0  0
 23 55  1  0  0  0  0
 23 56  1  0  0  0  0
 24 25  1  0  0  0  0
 24 57  1  0  0  0  0
 24 58  1  0  0  0  0
 25 59  1  0  0  0  0
 25 60  1  0  0  0  0
 26 27  2  0  0  0  0
 26 61  1  0  0  0  0
 27 62  1  0  0  0  0
 28 63  1  0  0  0  0
 28 64  1  0  0  0  0
 29 34  1  0  0  0  0
M  END
> <ConfScore>
-0.48924 

$$$$
4agq


 64 66  0  0  0  0  0  0  0  0999 V2000
  126.5423  102.7744  -51.2820 N   0  0  0  1  0  3  0  0  0  0  0  0
  123.9580  107.6030  -44.7890 N   0  3  0  1  0  4  0  0  0  0  0  0
  125.4500  111.6190  -44.1530 N   0  3  0  1  0  4  0  0  0  0  0  0
  124.7350  103.6179  -52.7150 C   0  0  0  1  0  3  0  0  0  0  0  0
  125.6156  103.5159  -46.5871 C   0  0  0  1  0  3  0  0  0  0  0  0
  124.2920  105.1887  -45.4244 C   0  0  0  1  0  3  0  0  0  0  0  0
  125.9749  102.9455  -45.3581 C   0  0  0  1  0  3  0  0  0  0  0  0
  123.3850  106.3880  -45.4850 C   0  0  0  1  0  4  0  0  0  0  0  0
  122.9790  108.7410  -44.8490 C   0  0  0  1  0  4  0  0  0  0  0  0
  124.7854  104.6424  -46.6169 C   0  0  0  1  0  3  0  0  0  0  0  0
  126.1195  102.9898  -47.8154 C   0  0  0  1  0  2  0  0  0  0  0  0
  125.4941  103.4884  -44.1583 C   0  0  0  1  0  3  0  0  0  0  0  0
  126.5149  102.5860  -48.8756 C   0  0  0  1  0  2  0  0  0  0  0  0
  127.0333  102.0448  -50.1398 C   0  0  0  1  0  4  0  0  0  0  0  0
  125.2012  102.8908  -51.6159 C   0  0  0  1  0  3  0  0  0  0  0  0
  124.6516  104.6026  -44.2014 C   0  0  0  1  0  3  0  0  0  0  0  0
  124.2433  102.2542  -50.8137 C   0  0  0  1  0  3  0  0  0  0  0  0
  123.5670  109.9230  -44.0960 C   0  0  0  1  0  4  0  0  0  0  0  0
  122.8765  102.3382  -51.1017 C   0  0  0  1  0  3  0  0  0  0  0  0
  124.9010  110.3060  -44.7320 C   0  0  0  1  0  4  0  0  0  0  0  0
  125.1637  114.1076  -43.9526 C   0  0  0  1  0  4  0  0  0  0  0  0
  125.8040  111.5799  -42.6789 C   0  0  0  1  0  4  0  0  0  0  0  0
  126.8886  110.5464  -42.4297 C   0  0  0  1  0  4  0  0  0  0  0  0
  125.9010  109.1490  -44.6010 C   0  0  0  1  0  4  0  0  0  0  0  0
  125.3410  107.9150  -45.2920 C   0  0  0  1  0  4  0  0  0  0  0  0
  122.4380  103.0664  -52.2018 C   0  0  0  1  0  3  0  0  0  0  0  0
  123.3718  103.7051  -53.0157 C   0  0  0  1  0  3  0  0  0  0  0  0
  124.5315  112.8147  -44.4413 C   0  0  0  1  0  4  0  0  0  0  0  0
  124.1722  105.1657  -43.0397 O   0  0  0  1  0  2  0  0  0  0  0  0
  125.9970  102.6285  -42.2783 I   0  0  0  1  0  1  0  0  0  0  0  0
  125.4492  104.1288  -53.3515 H   0  0  0  1  0  1  0  0  0  0  0  0
  127.2318  103.2386  -51.8897 H   0  0  0  1  0  1  0  0  0  0  0  0
  124.0600  107.3680  -43.8140 H   0  0  0  1  0  1  0  0  0  0  0  0
  124.4922  104.6708  -42.2939 H   0  0  0  1  0  1  0  0  0  0  0  0
  126.6276  102.0810  -45.3347 H   0  0  0  1  0  1  0  0  0  0  0  0
  122.4294  106.1280  -45.0054 H   0  0  0  1  0  1  0  0  0  0  0  0
  123.2086  106.6403  -46.5405 H   0  0  0  1  0  1  0  0  0  0  0  0
  126.3137  111.7932  -44.6434 H   0  0  0  1  0  1  0  0  0  0  0  0
  122.0300  108.4400  -44.3820 H   0  0  0  1  0  1  0  0  0  0  0  0
  122.8000  109.0220  -45.8970 H   0  0  0  1  0  1  0  0  0  0  0  0
  124.5227  105.0947  -47.5665 H   0  0  0  1  0  1  0  0  0  0  0  0
  128.1323  102.1030  -50.1268 H   0  0  0  1  0  1  0  0  0  0  0  0
  126.7239  100.9937  -50.2304 H   0  0  0  1  0  1  0  0  0  0  0  0
  124.5699  101.6839  -49.9518 H   0  0  0  1  0  1  0  0  0  0  0  0
  123.7270  109.6460  -43.0440 H   0  0  0  1  0  1  0  0  0  0  0  0
  122.8750  110.7760  -44.1500 H   0  0  0  1  0  1  0  0  0  0  0  0
  122.1589  101.8348  -50.4651 H   0  0  0  1  0  1  0  0  0  0  0  0
  124.7240  110.4720  -45.8050 H   0  0  0  1  0  1  0  0  0  0  0  0
  126.1318  114.2539  -44.4536 H   0  0  0  1  0  1  0  0  0  0  0  0
  125.3200  114.0505  -42.8649 H   0  0  0  1  0  1  0  0  0  0  0  0
  124.4983  114.9524  -44.1848 H   0  0  0  1  0  1  0  0  0  0  0  0
  124.9091  111.3153  -42.0965 H   0  0  0  1  0  1  0  0  0  0  0  0
  126.1662  112.5709  -42.3652 H   0  0  0  1  0  1  0  0  0  0  0  0
  127.1373  110.5261  -41.3587 H   0  0  0  1  0  1  0  0  0  0  0  0
  127.7853  110.8087  -43.0097 H   0  0  0  1  0  1  0  0  0  0  0  0
  126.5288  109.5535  -42.7409 H   0  0  0  1  0  1  0  0  0  0  0  0
  126.0690  108.9290  -43.5370 H   0  0  0  1  0  1  0  0  0  0  0  0
  126.8540  109.4330  -45.0720 H   0  0  0  1  0  1  0  0  0  0  0  0
  125.2990  108.0960  -46.3760 H   0  0  0  1  0  1  0  0  0  0  0  0
  126.0010  107.0580  -45.0890 H   0  0  0  1  0  1  0  0  0  0  0  0
  121.3796  103.1356  -52.4247 H   0  0  0  1  0  1  0  0  0  0  0  0
  123.0421  104.2693  -53.8810 H   0  0  0  1  0  1  0  0  0  0  0  0
  123.5712  112.6647  -43.9257 H   0  0  0  1  0  1  0  0  0  0  0  0
  124.3583  112.8841  -45.5258 H   0  0  0  1  0  1  0  0  0  0  0  0
  1 14  1  0  0  0  0
  1 15  1  0  0  0  0
  1 32  1  0  0  0  0
  2  8  1  0  0  0  0
  2  9  1  0  0  0  0
  2 25  1  0  0  0  0
  2 33  1  0  0  0  0
  3 20  1  0  0  0  0
  3 22  1  0  0  0  0
  3 28  1  0  0  0  0
  3 38  1  0  0  0  0
  4 15  2  0  0  0  0
  4 27  1  0  0  0  0
  4 31  1  0  0  0  0
  5  7  2  0  0  0  0
  5 10  1  0  0  0  0
  5 11  1  0  0  0  0
  6  8  1  0  0  0  0
  6 10  2  0  0  0  0
  6 16  1  0  0  0  0
  7 12  1  0  0  0  0
  7 35  1  0  0  0  0
  8 36  1  0  0  0  0
  8 37  1  0  0  0  0
  9 18  1  0  0  0  0
  9 39  1  0  0  0  0
  9 40  1  0  0  0  0
 10 41  1  0  0  0  0
 11 13  3  0  0  0  0
 12 16  2  0  0  0  0
 12 30  1  0  0  0  0
 13 14  1  0  0  0  0
 14 42  1  0  0  0  0
 14 43  1  0  0  0  0
 15 17  1  0  0  0  0
 16 29  1  0  0  0  0
 17 19  2  0  0  0  0
 17 44  1  0  0  0  0
 18 20  1  0  0  0  0
 18 45  1  0  0  0  0
 18 46  1  0  0  0  0
 19 26  1  0  0  0  0
 19 47  1  0  0  0  0
 20 24  1  0  0  0  0
 20 48  1  0  0  0  0
 21 28  1  0  0  0  0
 21 49  1  0  0  0  0
 21 50  1  0  0  0  0
 21 51  1  0  0  0  0
 22 23  1  0  0  0  0
 22 52  1  0  0  0  0
 22 53  1  0  0  0  0
 23 54  1  0  0  0  0
 23 55  1  0  0  0  0
 23 56  1  0  0  0  0
 24 25  1  0  0  0  0
 24 57  1  0  0  0  0
 24 58  1  0  0  0  0
 25 59  1  0  0  0  0
 25 60  1  0  0  0  0
 26 27  2  0  0  0  0
 26 61  1  0  0  0  0
 27 62  1  0  0  0  0
 28 63  1  0  0  0  0
 28 64  1  0  0  0  0
 29 34  1  0  0  0  0
M  END
> <ConfScore>
-0.489131 

$$$$
4agq


 64 66  0  0  0  0  0  0  0  0999 V2000
  123.8566  100.8642  -50.5739 N   0  0  0  1  0  3  0  0  0  0  0  0
  123.9580  107.6030  -44.7890 N   0  3  0  1  0  4  0  0  0  0  0  0
  125.4500  111.6190  -44.1530 N   0  3  0  1  0  4  0  0  0  0  0  0
  122.2049  100.3241  -52.3092 C   0  0  0  1  0  3  0  0  0  0  0  0
  125.0845  103.1378  -46.4783 C   0  0  0  1  0  3  0  0  0  0  0  0
  124.3066  105.1988  -45.4540 C   0  0  0  1  0  3  0  0  0  0  0  0
  125.9972  102.9605  -45.4292 C   0  0  0  1  0  3  0  0  0  0  0  0
  123.3850  106.3880  -45.4850 C   0  0  0  1  0  4  0  0  0  0  0  0
  122.9790  108.7410  -44.8490 C   0  0  0  1  0  4  0  0  0  0  0  0
  124.2504  104.2617  -46.4944 C   0  0  0  1  0  3  0  0  0  0  0  0
  125.0201  102.2073  -47.5598 C   0  0  0  1  0  2  0  0  0  0  0  0
  126.0682  103.8957  -44.3872 C   0  0  0  1  0  3  0  0  0  0  0  0
  124.9257  101.4551  -48.4918 C   0  0  0  1  0  2  0  0  0  0  0  0
  124.8591  100.4979  -49.6050 C   0  0  0  1  0  4  0  0  0  0  0  0
  123.1900   99.9596  -51.3869 C   0  0  0  1  0  3  0  0  0  0  0  0
  125.2180  105.0048  -44.4051 C   0  0  0  1  0  3  0  0  0  0  0  0
  123.5048   98.5967  -51.2882 C   0  0  0  1  0  3  0  0  0  0  0  0
  123.5670  109.9230  -44.0960 C   0  0  0  1  0  4  0  0  0  0  0  0
  122.8638   97.6392  -52.0821 C   0  0  0  1  0  3  0  0  0  0  0  0
  124.9010  110.3060  -44.7320 C   0  0  0  1  0  4  0  0  0  0  0  0
  124.1868  112.8827  -45.9201 C   0  0  0  1  0  4  0  0  0  0  0  0
  125.8040  111.5799  -42.6789 C   0  0  0  1  0  4  0  0  0  0  0  0
  126.8094  110.4731  -42.4126 C   0  0  0  1  0  4  0  0  0  0  0  0
  125.9010  109.1490  -44.6010 C   0  0  0  1  0  4  0  0  0  0  0  0
  125.3410  107.9150  -45.2920 C   0  0  0  1  0  4  0  0  0  0  0  0
  121.8882   98.0273  -52.9934 C   0  0  0  1  0  3  0  0  0  0  0  0
  121.5607   99.3768  -53.1116 C   0  0  0  1  0  3  0  0  0  0  0  0
  124.5315  112.8147  -44.4413 C   0  0  0  1  0  4  0  0  0  0  0  0
  125.2717  105.9468  -43.4020 O   0  0  0  1  0  2  0  0  0  0  0  0
  127.4218  103.6404  -42.7658 I   0  0  0  1  0  1  0  0  0  0  0  0
  121.9321  101.3694  -52.4050 H   0  0  0  1  0  1  0  0  0  0  0  0
  123.6207  101.8619  -50.6692 H   0  0  0  1  0  1  0  0  0  0  0  0
  124.0600  107.3680  -43.8140 H   0  0  0  1  0  1  0  0  0  0  0  0
  125.9271  105.6902  -42.7632 H   0  0  0  1  0  1  0  0  0  0  0  0
  126.6515  102.0969  -45.4233 H   0  0  0  1  0  1  0  0  0  0  0  0
  122.4423  106.1125  -44.9889 H   0  0  0  1  0  1  0  0  0  0  0  0
  123.1846  106.6481  -46.5343 H   0  0  0  1  0  1  0  0  0  0  0  0
  126.3137  111.7932  -44.6434 H   0  0  0  1  0  1  0  0  0  0  0  0
  122.0300  108.4400  -44.3820 H   0  0  0  1  0  1  0  0  0  0  0  0
  122.8000  109.0220  -45.8970 H   0  0  0  1  0  1  0  0  0  0  0  0
  123.5576  104.4082  -47.3154 H   0  0  0  1  0  1  0  0  0  0  0  0
  125.8397  100.4646  -50.1036 H   0  0  0  1  0  1  0  0  0  0  0  0
  124.6187   99.5026  -49.2045 H   0  0  0  1  0  1  0  0  0  0  0  0
  124.2624   98.2788  -50.5812 H   0  0  0  1  0  1  0  0  0  0  0  0
  123.7270  109.6460  -43.0440 H   0  0  0  1  0  1  0  0  0  0  0  0
  122.8750  110.7760  -44.1500 H   0  0  0  1  0  1  0  0  0  0  0  0
  123.1283   96.5931  -51.9854 H   0  0  0  1  0  1  0  0  0  0  0  0
  124.7240  110.4720  -45.8050 H   0  0  0  1  0  1  0  0  0  0  0  0
  123.6884  111.9503  -46.2230 H   0  0  0  1  0  1  0  0  0  0  0  0
  125.1096  113.0108  -46.5057 H   0  0  0  1  0  1  0  0  0  0  0  0
  123.5147  113.7345  -46.1016 H   0  0  0  1  0  1  0  0  0  0  0  0
  124.8935  111.3930  -42.0907 H   0  0  0  1  0  1  0  0  0  0  0  0
  126.2397  112.5466  -42.3835 H   0  0  0  1  0  1  0  0  0  0  0  0
  127.0588  110.4535  -41.3418 H   0  0  0  1  0  1  0  0  0  0  0  0
  127.7216  110.6576  -42.9984 H   0  0  0  1  0  1  0  0  0  0  0  0
  126.3760  109.5044  -42.7055 H   0  0  0  1  0  1  0  0  0  0  0  0
  126.0690  108.9290  -43.5370 H   0  0  0  1  0  1  0  0  0  0  0  0
  126.8540  109.4330  -45.0720 H   0  0  0  1  0  1  0  0  0  0  0  0
  125.2990  108.0960  -46.3760 H   0  0  0  1  0  1  0  0  0  0  0  0
  126.0010  107.0580  -45.0890 H   0  0  0  1  0  1  0  0  0  0  0  0
  121.3880   97.2869  -53.6069 H   0  0  0  1  0  1  0  0  0  0  0  0
  120.8071   99.6922  -53.8246 H   0  0  0  1  0  1  0  0  0  0  0  0
  125.0440  113.7427  -44.1468 H   0  0  0  1  0  1  0  0  0  0  0  0
  123.6044  112.7071  -43.8584 H   0  0  0  1  0  1  0  0  0  0  0  0
  1 14  1  0  0  0  0
  1 15  1  0  0  0  0
  1 32  1  0  0  0  0
  2  8  1  0  0  0  0
  2  9  1  0  0  0  0
  2 25  1  0  0  0  0
  2 33  1  0  0  0  0
  3 20  1  0  0  0  0
  3 22  1  0  0  0  0
  3 28  1  0  0  0  0
  3 38  1  0  0  0  0
  4 15  2  0  0  0  0
  4 27  1  0  0  0  0
  4 31  1  0  0  0  0
  5  7  2  0  0  0  0
  5 10  1  0  0  0  0
  5 11  1  0  0  0  0
  6  8  1  0  0  0  0
  6 10  2  0  0  0  0
  6 16  1  0  0  0  0
  7 12  1  0  0  0  0
  7 35  1  0  0  0  0
  8 36  1  0  0  0  0
  8 37  1  0  0  0  0
  9 18  1  0  0  0  0
  9 39  1  0  0  0  0
  9 40  1  0  0  0  0
 10 41  1  0  0  0  0
 11 13  3  0  0  0  0
 12 16  2  0  0  0  0
 12 30  1  0  0  0  0
 13 14  1  0  0  0  0
 14 42  1  0  0  0  0
 14 43  1  0  0  0  0
 15 17  1  0  0  0  0
 16 29  1  0  0  0  0
 17 19  2  0  0  0  0
 17 44  1  0  0  0  0
 18 20  1  0  0  0  0
 18 45  1  0  0  0  0
 18 46  1  0  0  0  0
 19 26  1  0  0  0  0
 19 47  1  0  0  0  0
 20 24  1  0  0  0  0
 20 48  1  0  0  0  0
 21 28  1  0  0  0  0
 21 49  1  0  0  0  0
 21 50  1  0  0  0  0
 21 51  1  0  0  0  0
 22 23  1  0  0  0  0
 22 52  1  0  0  0  0
 22 53  1  0  0  0  0
 23 54  1  0  0  0  0
 23 55  1  0  0  0  0
 23 56  1  0  0  0  0
 24 25  1  0  0  0  0
 24 57  1  0  0  0  0
 24 58  1  0  0  0  0
 25 59  1  0  0  0  0
 25 60  1  0  0  0  0
 26 27  2  0  0  0  0
 26 61  1  0  0  0  0
 27 62  1  0  0  0  0
 28 63  1  0  0  0  0
 28 64  1  0  0  0  0
 29 34  1  0  0  0  0
M  END
> <ConfScore>
-0.488191 

$$$$
4agq


 64 66  0  0  0  0  0  0  0  0999 V2000
  124.2326   99.8365  -49.0893 N   0  0  0  1  0  3  0  0  0  0  0  0
  123.9580  107.6030  -44.7890 N   0  3  0  1  0  4  0  0  0  0  0  0
  125.4500  111.6190  -44.1530 N   0  3  0  1  0  4  0  0  0  0  0  0
  126.4469  100.4887  -49.9275 C   0  0  0  1  0  3  0  0  0  0  0  0
  124.4007  102.7364  -45.2146 C   0  0  0  1  0  3  0  0  0  0  0  0
  123.8758  105.0884  -44.9066 C   0  0  0  1  0  3  0  0  0  0  0  0
  124.7731  102.6426  -43.8665 C   0  0  0  1  0  3  0  0  0  0  0  0
  123.3850  106.3880  -45.4850 C   0  0  0  1  0  4  0  0  0  0  0  0
  122.9790  108.7410  -44.8490 C   0  0  0  1  0  4  0  0  0  0  0  0
  123.9646  103.9608  -45.7341 C   0  0  0  1  0  3  0  0  0  0  0  0
  124.4994  101.6071  -46.0833 C   0  0  0  1  0  2  0  0  0  0  0  0
  124.6964  103.7659  -43.0312 C   0  0  0  1  0  3  0  0  0  0  0  0
  124.5629  100.6886  -46.8550 C   0  0  0  1  0  2  0  0  0  0  0  0
  124.6644   99.5268  -47.7493 C   0  0  0  1  0  4  0  0  0  0  0  0
  125.0732  100.2910  -50.0945 C   0  0  0  1  0  3  0  0  0  0  0  0
  124.2427  104.9788  -43.5568 C   0  0  0  1  0  3  0  0  0  0  0  0
  124.5313  100.5792  -51.3553 C   0  0  0  1  0  3  0  0  0  0  0  0
  123.5670  109.9230  -44.0960 C   0  0  0  1  0  4  0  0  0  0  0  0
  125.3312  101.0417  -52.4061 C   0  0  0  1  0  3  0  0  0  0  0  0
  124.9010  110.3060  -44.7320 C   0  0  0  1  0  4  0  0  0  0  0  0
  125.1637  114.1076  -43.9526 C   0  0  0  1  0  4  0  0  0  0  0  0
  125.8040  111.5799  -42.6789 C   0  0  0  1  0  4  0  0  0  0  0  0
  126.8094  110.4731  -42.4126 C   0  0  0  1  0  4  0  0  0  0  0  0
  125.9010  109.1490  -44.6010 C   0  0  0  1  0  4  0  0  0  0  0  0
  125.3410  107.9150  -45.2920 C   0  0  0  1  0  4  0  0  0  0  0  0
  126.6955  101.2288  -52.2153 C   0  0  0  1  0  3  0  0  0  0  0  0
  127.2574  100.9459  -50.9717 C   0  0  0  1  0  3  0  0  0  0  0  0
  124.5315  112.8147  -44.4413 C   0  0  0  1  0  4  0  0  0  0  0  0
  124.1669  106.1027  -42.7646 O   0  0  0  1  0  2  0  0  0  0  0  0
  125.2263  103.6495  -40.9740 I   0  0  0  1  0  1  0  0  0  0  0  0
  126.8965  100.2826  -48.9623 H   0  0  0  1  0  1  0  0  0  0  0  0
  123.2355   99.7130  -49.3147 H   0  0  0  1  0  1  0  0  0  0  0  0
  124.0600  107.3680  -43.8140 H   0  0  0  1  0  1  0  0  0  0  0  0
  124.4427  105.8852  -41.8814 H   0  0  0  1  0  1  0  0  0  0  0  0
  125.1224  101.6977  -43.4676 H   0  0  0  1  0  1  0  0  0  0  0  0
  122.2887  106.4181  -45.3960 H   0  0  0  1  0  1  0  0  0  0  0  0
  123.6677  106.4274  -46.5468 H   0  0  0  1  0  1  0  0  0  0  0  0
  126.3137  111.7932  -44.6434 H   0  0  0  1  0  1  0  0  0  0  0  0
  122.0300  108.4400  -44.3820 H   0  0  0  1  0  1  0  0  0  0  0  0
  122.8000  109.0220  -45.8970 H   0  0  0  1  0  1  0  0  0  0  0  0
  123.6944  104.0377  -46.7811 H   0  0  0  1  0  1  0  0  0  0  0  0
  125.7131   99.1944  -47.7819 H   0  0  0  1  0  1  0  0  0  0  0  0
  124.0363   98.7163  -47.3524 H   0  0  0  1  0  1  0  0  0  0  0  0
  123.4689  100.4395  -51.5188 H   0  0  0  1  0  1  0  0  0  0  0  0
  123.7270  109.6460  -43.0440 H   0  0  0  1  0  1  0  0  0  0  0  0
  122.8750  110.7760  -44.1500 H   0  0  0  1  0  1  0  0  0  0  0  0
  124.8854  101.2550  -53.3703 H   0  0  0  1  0  1  0  0  0  0  0  0
  124.7240  110.4720  -45.8050 H   0  0  0  1  0  1  0  0  0  0  0  0
  126.1318  114.2539  -44.4536 H   0  0  0  1  0  1  0  0  0  0  0  0
  125.3200  114.0505  -42.8649 H   0  0  0  1  0  1  0  0  0  0  0  0
  124.4983  114.9524  -44.1848 H   0  0  0  1  0  1  0  0  0  0  0  0
  124.8935  111.3930  -42.0907 H   0  0  0  1  0  1  0  0  0  0  0  0
  126.2397  112.5466  -42.3835 H   0  0  0  1  0  1  0  0  0  0  0  0
  127.0588  110.4535  -41.3418 H   0  0  0  1  0  1  0  0  0  0  0  0
  127.7216  110.6576  -42.9984 H   0  0  0  1  0  1  0  0  0  0  0  0
  126.3760  109.5044  -42.7055 H   0  0  0  1  0  1  0  0  0  0  0  0
  126.0690  108.9290  -43.5370 H   0  0  0  1  0  1  0  0  0  0  0  0
  126.8540  109.4330  -45.0720 H   0  0  0  1  0  1  0  0  0  0  0  0
  125.2990  108.0960  -46.3760 H   0  0  0  1  0  1  0  0  0  0  0  0
  126.0010  107.0580  -45.0890 H   0  0  0  1  0  1  0  0  0  0  0  0
  127.3163  101.5902  -53.0269 H   0  0  0  1  0  1  0  0  0  0  0  0
  128.3216  101.0804  -50.8135 H   0  0  0  1  0  1  0  0  0  0  0  0
  123.5712  112.6647  -43.9257 H   0  0  0  1  0  1  0  0  0  0  0  0
  124.3583  112.8841  -45.5258 H   0  0  0  1  0  1  0  0  0  0  0  0
  1 14  1  0  0  0  0
  1 15  1  0  0  0  0
  1 32  1  0  0  0  0
  2  8  1  0  0  0  0
  2  9  1  0  0  0  0
  2 25  1  0  0  0  0
  2 33  1  0  0  0  0
  3 20  1  0  0  0  0
  3 22  1  0  0  0  0
  3 28  1  0  0  0  0
  3 38  1  0  0  0  0
  4 15  2  0  0  0  0
  4 27  1  0  0  0  0
  4 31  1  0  0  0  0
  5  7  2  0  0  0  0
  5 10  1  0  0  0  0
  5 11  1  0  0  0  0
  6  8  1  0  0  0  0
  6 10  2  0  0  0  0
  6 16  1  0  0  0  0
  7 12  1  0  0  0  0
  7 35  1  0  0  0  0
  8 36  1  0  0  0  0
  8 37  1  0  0  0  0
  9 18  1  0  0  0  0
  9 39  1  0  0  0  0
  9 40  1  0  0  0  0
 10 41  1  0  0  0  0
 11 13  3  0  0  0  0
 12 16  2  0  0  0  0
 12 30  1  0  0  0  0
 13 14  1  0  0  0  0
 14 42  1  0  0  0  0
 14 43  1  0  0  0  0
 15 17  1  0  0  0  0
 16 29  1  0  0  0  0
 17 19  2  0  0  0  0
 17 44  1  0  0  0  0
 18 20  1  0  0  0  0
 18 45  1  0  0  0  0
 18 46  1  0  0  0  0
 19 26  1  0  0  0  0
 19 47  1  0  0  0  0
 20 24  1  0  0  0  0
 20 48  1  0  0  0  0
 21 28  1  0  0  0  0
 21 49  1  0  0  0  0
 21 50  1  0  0  0  0
 21 51  1  0  0  0  0
 22 23  1  0  0  0  0
 22 52  1  0  0  0  0
 22 53  1  0  0  0  0
 23 54  1  0  0  0  0
 23 55  1  0  0  0  0
 23 56  1  0  0  0  0
 24 25  1  0  0  0  0
 24 57  1  0  0  0  0
 24 58  1  0  0  0  0
 25 59  1  0  0  0  0
 25 60  1  0  0  0  0
 26 27  2  0  0  0  0
 26 61  1  0  0  0  0
 27 62  1  0  0  0  0
 28 63  1  0  0  0  0
 28 64  1  0  0  0  0
 29 34  1  0  0  0  0
M  END
> <ConfScore>
-0.487215 

$$$$
4agq


 64 66  0  0  0  0  0  0  0  0999 V2000
  126.5423  102.7744  -51.2820 N   0  0  0  1  0  3  0  0  0  0  0  0
  123.9580  107.6030  -44.7890 N   0  3  0  1  0  4  0  0  0  0  0  0
  125.4500  111.6190  -44.1530 N   0  3  0  1  0  4  0  0  0  0  0  0
  126.2945  104.8210  -52.6168 C   0  0  0  1  0  3  0  0  0  0  0  0
  125.6156  103.5159  -46.5871 C   0  0  0  1  0  3  0  0  0  0  0  0
  124.2920  105.1887  -45.4244 C   0  0  0  1  0  3  0  0  0  0  0  0
  125.9749  102.9455  -45.3581 C   0  0  0  1  0  3  0  0  0  0  0  0
  123.3850  106.3880  -45.4850 C   0  0  0  1  0  4  0  0  0  0  0  0
  122.9790  108.7410  -44.8490 C   0  0  0  1  0  4  0  0  0  0  0  0
  124.7854  104.6424  -46.6169 C   0  0  0  1  0  3  0  0  0  0  0  0
  126.1195  102.9898  -47.8154 C   0  0  0  1  0  2  0  0  0  0  0  0
  125.4941  103.4884  -44.1583 C   0  0  0  1  0  3  0  0  0  0  0  0
  126.5149  102.5860  -48.8756 C   0  0  0  1  0  2  0  0  0  0  0  0
  127.0333  102.0448  -50.1398 C   0  0  0  1  0  4  0  0  0  0  0  0
  126.7584  104.1278  -51.4951 C   0  0  0  1  0  3  0  0  0  0  0  0
  124.6516  104.6026  -44.2014 C   0  0  0  1  0  3  0  0  0  0  0  0
  127.4865  104.8577  -50.5446 C   0  0  0  1  0  3  0  0  0  0  0  0
  123.5670  109.9230  -44.0960 C   0  0  0  1  0  4  0  0  0  0  0  0
  127.7362  106.2249  -50.7077 C   0  0  0  1  0  3  0  0  0  0  0  0
  124.9010  110.3060  -44.7320 C   0  0  0  1  0  4  0  0  0  0  0  0
  125.1637  114.1076  -43.9526 C   0  0  0  1  0  4  0  0  0  0  0  0
  125.8040  111.5799  -42.6789 C   0  0  0  1  0  4  0  0  0  0  0  0
  126.3552  112.9249  -42.2386 C   0  0  0  1  0  4  0  0  0  0  0  0
  125.9010  109.1490  -44.6010 C   0  0  0  1  0  4  0  0  0  0  0  0
  125.3410  107.9150  -45.2920 C   0  0  0  1  0  4  0  0  0  0  0  0
  127.2626  106.8921  -51.8317 C   0  0  0  1  0  3  0  0  0  0  0  0
  126.5336  106.1883  -52.7885 C   0  0  0  1  0  3  0  0  0  0  0  0
  124.5315  112.8147  -44.4413 C   0  0  0  1  0  4  0  0  0  0  0  0
  124.1722  105.1657  -43.0397 O   0  0  0  1  0  2  0  0  0  0  0  0
  125.9970  102.6285  -42.2783 I   0  0  0  1  0  1  0  0  0  0  0  0
  125.7346  104.2842  -53.3749 H   0  0  0  1  0  1  0  0  0  0  0  0
  125.9953  102.2578  -51.9848 H   0  0  0  1  0  1  0  0  0  0  0  0
  124.0600  107.3680  -43.8140 H   0  0  0  1  0  1  0  0  0  0  0  0
  124.4922  104.6708  -42.2939 H   0  0  0  1  0  1  0  0  0  0  0  0
  126.6276  102.0810  -45.3347 H   0  0  0  1  0  1  0  0  0  0  0  0
  122.4294  106.1280  -45.0054 H   0  0  0  1  0  1  0  0  0  0  0  0
  123.2086  106.6403  -46.5405 H   0  0  0  1  0  1  0  0  0  0  0  0
  126.3137  111.7932  -44.6434 H   0  0  0  1  0  1  0  0  0  0  0  0
  122.0300  108.4400  -44.3820 H   0  0  0  1  0  1  0  0  0  0  0  0
  122.8000  109.0220  -45.8970 H   0  0  0  1  0  1  0  0  0  0  0  0
  124.5227  105.0947  -47.5665 H   0  0  0  1  0  1  0  0  0  0  0  0
  128.1323  102.1030  -50.1268 H   0  0  0  1  0  1  0  0  0  0  0  0
  126.7239  100.9937  -50.2304 H   0  0  0  1  0  1  0  0  0  0  0  0
  127.8633  104.3509  -49.6637 H   0  0  0  1  0  1  0  0  0  0  0  0
  123.7270  109.6460  -43.0440 H   0  0  0  1  0  1  0  0  0  0  0  0
  122.8750  110.7760  -44.1500 H   0  0  0  1  0  1  0  0  0  0  0  0
  128.3006  106.7639  -49.9562 H   0  0  0  1  0  1  0  0  0  0  0  0
  124.7240  110.4720  -45.8050 H   0  0  0  1  0  1  0  0  0  0  0  0
  126.1318  114.2539  -44.4536 H   0  0  0  1  0  1  0  0  0  0  0  0
  125.3200  114.0505  -42.8649 H   0  0  0  1  0  1  0  0  0  0  0  0
  124.4983  114.9524  -44.1848 H   0  0  0  1  0  1  0  0  0  0  0  0
  126.5628  110.8023  -42.5072 H   0  0  0  1  0  1  0  0  0  0  0  0
  124.9011  111.3471  -42.0938 H   0  0  0  1  0  1  0  0  0  0  0  0
  126.6086  112.8856  -41.1692 H   0  0  0  1  0  1  0  0  0  0  0  0
  125.5984  113.7046  -42.4078 H   0  0  0  1  0  1  0  0  0  0  0  0
  127.2595  113.1601  -42.8208 H   0  0  0  1  0  1  0  0  0  0  0  0
  126.0690  108.9290  -43.5370 H   0  0  0  1  0  1  0  0  0  0  0  0
  126.8540  109.4330  -45.0720 H   0  0  0  1  0  1  0  0  0  0  0  0
  125.2990  108.0960  -46.3760 H   0  0  0  1  0  1  0  0  0  0  0  0
  126.0010  107.0580  -45.0890 H   0  0  0  1  0  1  0  0  0  0  0  0
  127.4579  107.9503  -51.9616 H   0  0  0  1  0  1  0  0  0  0  0  0
  126.1524  106.6999  -53.6652 H   0  0  0  1  0  1  0  0  0  0  0  0
  123.5712  112.6647  -43.9257 H   0  0  0  1  0  1  0  0  0  0  0  0
  124.3583  112.8841  -45.5258 H   0  0  0  1  0  1  0  0  0  0  0  0
  1 14  1  0  0  0  0
  1 15  1  0  0  0  0
  1 32  1  0  0  0  0
  2  8  1  0  0  0  0
  2  9  1  0  0  0  0
  2 25  1  0  0  0  0
  2 33  1  0  0  0  0
  3 20  1  0  0  0  0
  3 22  1  0  0  0  0
  3 28  1  0  0  0  0
  3 38  1  0  0  0  0
  4 15  2  0  0  0  0
  4 27  1  0  0  0  0
  4 31  1  0  0  0  0
  5  7  2  0  0  0  0
  5 10  1  0  0  0  0
  5 11  1  0  0  0  0
  6  8  1  0  0  0  0
  6 10  2  0  0  0  0
  6 16  1  0  0  0  0
  7 12  1  0  0  0  0
  7 35  1  0  0  0  0
  8 36  1  0  0  0  0
  8 37  1  0  0  0  0
  9 18  1  0  0  0  0
  9 39  1  0  0  0  0
  9 40  1  0  0  0  0
 10 41  1  0  0  0  0
 11 13  3  0  0  0  0
 12 16  2  0  0  0  0
 12 30  1  0  0  0  0
 13 14  1  0  0  0  0
 14 42  1  0  0  0  0
 14 43  1  0  0  0  0
 15 17  1  0  0  0  0
 16 29  1  0  0  0  0
 17 19  2  0  0  0  0
 17 44  1  0  0  0  0
 18 20  1  0  0  0  0
 18 45  1  0  0  0  0
 18 46  1  0  0  0  0
 19 26  1  0  0  0  0
 19 47  1  0  0  0  0
 20 24  1  0  0  0  0
 20 48  1  0  0  0  0
 21 28  1  0  0  0  0
 21 49  1  0  0  0  0
 21 50  1  0  0  0  0
 21 51  1  0  0  0  0
 22 23  1  0  0  0  0
 22 52  1  0  0  0  0
 22 53  1  0  0  0  0
 23 54  1  0  0  0  0
 23 55  1  0  0  0  0
 23 56  1  0  0  0  0
 24 25  1  0  0  0  0
 24 57  1  0  0  0  0
 24 58  1  0  0  0  0
 25 59  1  0  0  0  0
 25 60  1  0  0  0  0
 26 27  2  0  0  0  0
 26 61  1  0  0  0  0
 27 62  1  0  0  0  0
 28 63  1  0  0  0  0
 28 64  1  0  0  0  0
 29 34  1  0  0  0  0
M  END
> <ConfScore>
-0.476223 

$$$$
4agq


 64 66  0  0  0  0  0  0  0  0999 V2000
   13.5201    5.4772   29.9937 N   0  0  0  1  0  3  0  0  0  0  0  0
    5.4320    2.2550   28.3390 N   0  3  0  1  0  4  0  0  0  0  0  0
    4.8039   -1.3070   27.7628 N   0  3  0  1  0  4  0  0  0  0  0  0
   12.1238    6.6725   31.6226 C   0  0  0  1  0  3  0  0  0  0  0  0
    9.2048    5.3338   27.8007 C   0  0  0  1  0  3  0  0  0  0  0  0
    7.2044    4.0773   28.1845 C   0  0  0  1  0  3  0  0  0  0  0  0
    8.6041    5.9437   26.7215 C   0  0  0  1  0  3  0  0  0  0  0  0
    6.4640    3.0610   28.9950 C   0  0  0  1  0  4  0  0  0  0  0  0
    6.0520    1.4770   27.2550 C   0  0  0  1  0  4  0  0  0  0  0  0
    8.4996    4.4169   28.5403 C   0  0  0  1  0  3  0  0  0  0  0  0
   10.5527    5.6534   28.1481 C   0  0  0  1  0  2  0  0  0  0  0  0
    7.2946    5.6309   26.3775 C   0  0  0  1  0  3  0  0  0  0  0  0
   11.6829    5.8864   28.4822 C   0  0  0  1  0  2  0  0  0  0  0  0
   13.0700    6.2150   28.8400 C   0  0  0  1  0  4  0  0  0  0  0  0
   13.0757    5.7051   31.2877 C   0  0  0  1  0  3  0  0  0  0  0  0
    6.5903    4.6997   27.1107 C   0  0  0  1  0  3  0  0  0  0  0  0
   13.6041    4.9348   32.3334 C   0  0  0  1  0  3  0  0  0  0  0  0
    4.9600    0.8100   26.4490 C   0  0  0  1  0  4  0  0  0  0  0  0
   13.1941    5.1216   33.6582 C   0  0  0  1  0  3  0  0  0  0  0  0
    4.0370   -0.0500   27.3240 C   0  0  0  1  0  4  0  0  0  0  0  0
    5.1830   -1.8946   25.3491 C   0  0  0  1  0  4  0  0  0  0  0  0
    5.4555   -1.2250   29.1297 C   0  0  0  1  0  4  0  0  0  0  0  0
    4.4460   -0.7533   30.1619 C   0  0  0  1  0  4  0  0  0  0  0  0
    3.5580    0.6920   28.5700 C   0  0  0  1  0  4  0  0  0  0  0  0
    4.7240    1.3610   29.2750 C   0  0  0  1  0  4  0  0  0  0  0  0
   12.2445    6.0895   33.9655 C   0  0  0  1  0  3  0  0  0  0  0  0
   11.7026    6.8653   32.9423 C   0  0  0  1  0  3  0  0  0  0  0  0
    5.8321   -1.7598   26.7169 C   0  0  0  1  0  4  0  0  0  0  0  0
    5.2897    4.3918   26.7786 O   0  0  0  1  0  2  0  0  0  0  0  0
    6.3749    6.5909   24.7165 I   0  0  0  1  0  1  0  0  0  0  0  0
   11.7009    7.2908   30.8383 H   0  0  0  1  0  1  0  0  0  0  0  0
   14.2170    4.7334   29.8480 H   0  0  0  1  0  1  0  0  0  0  0  0
    4.7370    2.8836   27.9673 H   0  0  0  1  0  1  0  0  0  0  0  0
    4.9343    5.0786   26.2259 H   0  0  0  1  0  1  0  0  0  0  0  0
    9.1555    6.6710   26.1377 H   0  0  0  1  0  1  0  0  0  0  0  0
    7.2117    2.3626   29.3999 H   0  0  0  1  0  1  0  0  0  0  0  0
    5.9779    3.5983   29.8220 H   0  0  0  1  0  1  0  0  0  0  0  0
    4.1137   -2.0395   27.8256 H   0  0  0  1  0  1  0  0  0  0  0  0
    6.7160    0.7116   27.6824 H   0  0  0  1  0  1  0  0  0  0  0  0
    6.6342    2.1468   26.6055 H   0  0  0  1  0  1  0  0  0  0  0  0
    8.9588    3.9560   29.4075 H   0  0  0  1  0  1  0  0  0  0  0  0
   13.7231    5.9742   27.9874 H   0  0  0  1  0  1  0  0  0  0  0  0
   13.1359    7.2905   29.0586 H   0  0  0  1  0  1  0  0  0  0  0  0
   14.3463    4.1772   32.1095 H   0  0  0  1  0  1  0  0  0  0  0  0
    5.4245    0.1680   25.6867 H   0  0  0  1  0  1  0  0  0  0  0  0
    4.3579    1.5876   25.9568 H   0  0  0  1  0  1  0  0  0  0  0  0
   13.6185    4.5108   34.4458 H   0  0  0  1  0  1  0  0  0  0  0  0
    3.1597   -0.3441   26.7290 H   0  0  0  1  0  1  0  0  0  0  0  0
    5.9368   -2.2185   24.6166 H   0  0  0  1  0  1  0  0  0  0  0  0
    4.7697   -0.9221   25.0425 H   0  0  0  1  0  1  0  0  0  0  0  0
    4.3745   -2.6391   25.3981 H   0  0  0  1  0  1  0  0  0  0  0  0
    6.2946   -0.5148   29.0911 H   0  0  0  1  0  1  0  0  0  0  0  0
    5.8299   -2.2201   29.4148 H   0  0  0  1  0  1  0  0  0  0  0  0
    4.9285   -0.6972   31.1484 H   0  0  0  1  0  1  0  0  0  0  0  0
    3.6062   -1.4620   30.2039 H   0  0  0  1  0  1  0  0  0  0  0  0
    4.0707    0.2427   29.8806 H   0  0  0  1  0  1  0  0  0  0  0  0
    3.0835   -0.0237   29.2565 H   0  0  0  1  0  1  0  0  0  0  0  0
    2.8259    1.4587   28.2750 H   0  0  0  1  0  1  0  0  0  0  0  0
    4.3473    1.9482   30.1252 H   0  0  0  1  0  1  0  0  0  0  0  0
    5.4199    0.5905   29.6402 H   0  0  0  1  0  1  0  0  0  0  0  0
   11.9281    6.2382   34.9913 H   0  0  0  1  0  1  0  0  0  0  0  0
   10.9555    7.6176   33.1689 H   0  0  0  1  0  1  0  0  0  0  0  0
    6.2475   -2.7335   27.0171 H   0  0  0  1  0  1  0  0  0  0  0  0
    6.6421   -1.0172   26.6613 H   0  0  0  1  0  1  0  0  0  0  0  0
  1 14  1  0  0  0  0
  1 15  1  0  0  0  0
  1 32  1  0  0  0  0
  2  8  1  0  0  0  0
  2  9  1  0  0  0  0
  2 25  1  0  0  0  0
  2 33  1  0  0  0  0
  3 20  1  0  0  0  0
  3 22  1  0  0  0  0
  3 28  1  0  0  0  0
  3 38  1  0  0  0  0
  4 15  2  0  0  0  0
  4 27  1  0  0  0  0
  4 31  1  0  0  0  0
  5  7  2  0  0  0  0
  5 10  1  0  0  0  0
  5 11  1  0  0  0  0
  6  8  1  0  0  0  0
  6 10  2  0  0  0  0
  6 16  1  0  0  0  0
  7 12  1  0  0  0  0
  7 35  1  0  0  0  0
  8 36  1  0  0  0  0
  8 37  1  0  0  0  0
  9 18  1  0  0  0  0
  9 39  1  0  0  0  0
  9 40  1  0  0  0  0
 10 41  1  0  0  0  0
 11 13  3  0  0  0  0
 12 16  2  0  0  0  0
 12 30  1  0  0  0  0
 13 14  1  0  0  0  0
 14 42  1  0  0  0  0
 14 43  1  0  0  0  0
 15 17  1  0  0  0  0
 16 29  1  0  0  0  0
 17 19  2  0  0  0  0
 17 44  1  0  0  0  0
 18 20  1  0  0  0  0
 18 45  1  0  0  0  0
 18 46  1  0  0  0  0
 19 26  1  0  0  0  0
 19 47  1  0  0  0  0
 20 24  1  0  0  0  0
 20 48  1  0  0  0  0
 21 28  1  0  0  0  0
 21 49  1  0  0  0  0
 21 50  1  0  0  0  0
 21 51  1  0  0  0  0
 22 23  1  0  0  0  0
 22 52  1  0  0  0  0
 22 53  1  0  0  0  0
 23 54  1  0  0  0  0
 23 55  1  0  0  0  0
 23 56  1  0  0  0  0
 24 25  1  0  0  0  0
 24 57  1  0  0  0  0
 24 58  1  0  0  0  0
 25 59  1  0  0  0  0
 25 60  1  0  0  0  0
 26 27  2  0  0  0  0
 26 61  1  0  0  0  0
 27 62  1  0  0  0  0
 28 63  1  0  0  0  0
 28 64  1  0  0  0  0
 29 34  1  0  0  0  0
M  END
> <ConfScore>
-0.468475 

$$$$
4agq


 64 66  0  0  0  0  0  0  0  0999 V2000
  129.1416  103.7818  -49.5716 N   0  0  0  1  0  3  0  0  0  0  0  0
  123.9580  107.6030  -44.7890 N   0  3  0  1  0  4  0  0  0  0  0  0
  125.4500  111.6190  -44.1530 N   0  3  0  1  0  4  0  0  0  0  0  0
  130.5799  104.0190  -47.5951 C   0  0  0  1  0  3  0  0  0  0  0  0
  124.8569  105.9542  -48.9613 C   0  0  0  1  0  3  0  0  0  0  0  0
  123.5344  106.4380  -46.9815 C   0  0  0  1  0  3  0  0  0  0  0  0
  123.8598  106.5219  -49.7665 C   0  0  0  1  0  3  0  0  0  0  0  0
  123.3850  106.3880  -45.4850 C   0  0  0  1  0  4  0  0  0  0  0  0
  122.9790  108.7410  -44.8490 C   0  0  0  1  0  4  0  0  0  0  0  0
  124.6868  105.9028  -47.5728 C   0  0  0  1  0  3  0  0  0  0  0  0
  126.0320  105.3854  -49.5402 C   0  0  0  1  0  2  0  0  0  0  0  0
  122.6990  107.0529  -49.1868 C   0  0  0  1  0  3  0  0  0  0  0  0
  127.0380  104.8946  -49.9764 C   0  0  0  1  0  2  0  0  0  0  0  0
  128.2475  104.3091  -50.5718 C   0  0  0  1  0  4  0  0  0  0  0  0
  129.7621  104.5493  -48.5971 C   0  0  0  1  0  3  0  0  0  0  0  0
  122.5482  107.0118  -47.7980 C   0  0  0  1  0  3  0  0  0  0  0  0
  129.5651  105.9376  -48.5978 C   0  0  0  1  0  3  0  0  0  0  0  0
  123.5670  109.9230  -44.0960 C   0  0  0  1  0  4  0  0  0  0  0  0
  130.1647  106.7612  -47.6385 C   0  0  0  1  0  3  0  0  0  0  0  0
  124.9010  110.3060  -44.7320 C   0  0  0  1  0  4  0  0  0  0  0  0
  124.2571  111.1620  -41.9888 C   0  0  0  1  0  4  0  0  0  0  0  0
  126.7489  112.1053  -44.7663 C   0  0  0  1  0  4  0  0  0  0  0  0
  126.5591  112.3688  -46.2500 C   0  0  0  1  0  4  0  0  0  0  0  0
  125.9010  109.1490  -44.6010 C   0  0  0  1  0  4  0  0  0  0  0  0
  125.3410  107.9150  -45.2920 C   0  0  0  1  0  4  0  0  0  0  0  0
  130.9753  106.2096  -46.6528 C   0  0  0  1  0  3  0  0  0  0  0  0
  131.1884  104.8325  -46.6339 C   0  0  0  1  0  3  0  0  0  0  0  0
  125.5744  111.5770  -42.6236 C   0  0  0  1  0  4  0  0  0  0  0  0
  121.4144  107.5149  -47.1997 O   0  0  0  1  0  2  0  0  0  0  0  0
  121.1805  107.9477  -50.3786 I   0  0  0  1  0  1  0  0  0  0  0  0
  130.7466  102.9478  -47.5615 H   0  0  0  1  0  1  0  0  0  0  0  0
  129.3327  102.7700  -49.5817 H   0  0  0  1  0  1  0  0  0  0  0  0
  124.0600  107.3680  -43.8140 H   0  0  0  1  0  1  0  0  0  0  0  0
  120.8372  107.8700  -47.8662 H   0  0  0  1  0  1  0  0  0  0  0  0
  123.9861  106.5504  -50.8422 H   0  0  0  1  0  1  0  0  0  0  0  0
  123.9049  105.4930  -45.1116 H   0  0  0  1  0  1  0  0  0  0  0  0
  122.3149  106.3181  -45.2424 H   0  0  0  1  0  1  0  0  0  0  0  0
  124.7592  112.3216  -44.3676 H   0  0  0  1  0  1  0  0  0  0  0  0
  122.0300  108.4400  -44.3820 H   0  0  0  1  0  1  0  0  0  0  0  0
  122.8000  109.0220  -45.8970 H   0  0  0  1  0  1  0  0  0  0  0  0
  125.4496  105.4469  -46.9519 H   0  0  0  1  0  1  0  0  0  0  0  0
  127.9508  103.4935  -51.2486 H   0  0  0  1  0  1  0  0  0  0  0  0
  128.7740  105.0860  -51.1444 H   0  0  0  1  0  1  0  0  0  0  0  0
  128.9346  106.3820  -49.3593 H   0  0  0  1  0  1  0  0  0  0  0  0
  123.7270  109.6460  -43.0440 H   0  0  0  1  0  1  0  0  0  0  0  0
  122.8750  110.7760  -44.1500 H   0  0  0  1  0  1  0  0  0  0  0  0
  129.9959  107.8310  -47.6642 H   0  0  0  1  0  1  0  0  0  0  0  0
  124.7240  110.4720  -45.8050 H   0  0  0  1  0  1  0  0  0  0  0  0
  123.9660  110.1704  -42.3649 H   0  0  0  1  0  1  0  0  0  0  0  0
  123.4785  111.8947  -42.2490 H   0  0  0  1  0  1  0  0  0  0  0  0
  124.3732  111.1211  -40.8956 H   0  0  0  1  0  1  0  0  0  0  0  0
  127.5256  111.3384  -44.6298 H   0  0  0  1  0  1  0  0  0  0  0  0
  127.0606  113.0361  -44.2681 H   0  0  0  1  0  1  0  0  0  0  0  0
  127.5061  112.7204  -46.6845 H   0  0  0  1  0  1  0  0  0  0  0  0
  125.7840  113.1361  -46.3900 H   0  0  0  1  0  1  0  0  0  0  0  0
  126.2489  111.4392  -46.7518 H   0  0  0  1  0  1  0  0  0  0  0  0
  126.0690  108.9290  -43.5370 H   0  0  0  1  0  1  0  0  0  0  0  0
  126.8540  109.4330  -45.0720 H   0  0  0  1  0  1  0  0  0  0  0  0
  125.2990  108.0960  -46.3760 H   0  0  0  1  0  1  0  0  0  0  0  0
  126.0010  107.0580  -45.0890 H   0  0  0  1  0  1  0  0  0  0  0  0
  131.4379  106.8454  -45.9068 H   0  0  0  1  0  1  0  0  0  0  0  0
  131.8251  104.3920  -45.8747 H   0  0  0  1  0  1  0  0  0  0  0  0
  125.8533  112.5761  -42.2566 H   0  0  0  1  0  1  0  0  0  0  0  0
  126.3545  110.8530  -42.3442 H   0  0  0  1  0  1  0  0  0  0  0  0
  1 14  1  0  0  0  0
  1 15  1  0  0  0  0
  1 32  1  0  0  0  0
  2  8  1  0  0  0  0
  2  9  1  0  0  0  0
  2 25  1  0  0  0  0
  2 33  1  0  0  0  0
  3 20  1  0  0  0  0
  3 22  1  0  0  0  0
  3 28  1  0  0  0  0
  3 38  1  0  0  0  0
  4 15  2  0  0  0  0
  4 27  1  0  0  0  0
  4 31  1  0  0  0  0
  5  7  2  0  0  0  0
  5 10  1  0  0  0  0
  5 11  1  0  0  0  0
  6  8  1  0  0  0  0
  6 10  2  0  0  0  0
  6 16  1  0  0  0  0
  7 12  1  0  0  0  0
  7 35  1  0  0  0  0
  8 36  1  0  0  0  0
  8 37  1  0  0  0  0
  9 18  1  0  0  0  0
  9 39  1  0  0  0  0
  9 40  1  0  0  0  0
 10 41  1  0  0  0  0
 11 13  3  0  0  0  0
 12 16  2  0  0  0  0
 12 30  1  0  0  0  0
 13 14  1  0  0  0  0
 14 42  1  0  0  0  0
 14 43  1  0  0  0  0
 15 17  1  0  0  0  0
 16 29  1  0  0  0  0
 17 19  2  0  0  0  0
 17 44  1  0  0  0  0
 18 20  1  0  0  0  0
 18 45  1  0  0  0  0
 18 46  1  0  0  0  0
 19 26  1  0  0  0  0
 19 47  1  0  0  0  0
 20 24  1  0  0  0  0
 20 48  1  0  0  0  0
 21 28  1  0  0  0  0
 21 49  1  0  0  0  0
 21 50  1  0  0  0  0
 21 51  1  0  0  0  0
 22 23  1  0  0  0  0
 22 52  1  0  0  0  0
 22 53  1  0  0  0  0
 23 54  1  0  0  0  0
 23 55  1  0  0  0  0
 23 56  1  0  0  0  0
 24 25  1  0  0  0  0
 24 57  1  0  0  0  0
 24 58  1  0  0  0  0
 25 59  1  0  0  0  0
 25 60  1  0  0  0  0
 26 27  2  0  0  0  0
 26 61  1  0  0  0  0
 27 62  1  0  0  0  0
 28 63  1  0  0  0  0
 28 64  1  0  0  0  0
 29 34  1  0  0  0  0
M  END
> <ConfScore>
-0.461625 

$$$$
4agq


 64 66  0  0  0  0  0  0  0  0999 V2000
   12.4617    8.6523   29.0978 N   0  0  0  1  0  3  0  0  0  0  0  0
    5.4320    2.2550   28.3390 N   0  3  0  1  0  4  0  0  0  0  0  0
    4.8039   -1.3070   27.7628 N   0  3  0  1  0  4  0  0  0  0  0  0
   12.0106   11.0661   29.1360 C   0  0  0  1  0  3  0  0  0  0  0  0
    8.5794    5.9884   27.9655 C   0  0  0  1  0  3  0  0  0  0  0  0
    6.8799    4.3500   28.3599 C   0  0  0  1  0  3  0  0  0  0  0  0
    7.6880    6.7182   27.2104 C   0  0  0  1  0  3  0  0  0  0  0  0
    6.4640    3.0610   28.9950 C   0  0  0  1  0  4  0  0  0  0  0  0
    6.0520    1.4770   27.2550 C   0  0  0  1  0  4  0  0  0  0  0  0
    8.1699    4.8170   28.5532 C   0  0  0  1  0  3  0  0  0  0  0  0
    9.9210    6.4473   28.1361 C   0  0  0  1  0  2  0  0  0  0  0  0
    6.3835    6.2718   27.0379 C   0  0  0  1  0  3  0  0  0  0  0  0
   11.0296    6.8793   28.3024 C   0  0  0  1  0  2  0  0  0  0  0  0
   12.4101    7.3519   28.4781 C   0  0  0  1  0  4  0  0  0  0  0  0
   11.9370    9.8063   28.5349 C   0  0  0  1  0  3  0  0  0  0  0  0
    5.9752    5.0884   27.6156 C   0  0  0  1  0  3  0  0  0  0  0  0
   11.2873    9.7230   27.2951 C   0  0  0  1  0  3  0  0  0  0  0  0
    4.9600    0.8100   26.4490 C   0  0  0  1  0  4  0  0  0  0  0  0
   10.7380   10.8537   26.6805 C   0  0  0  1  0  3  0  0  0  0  0  0
    4.0370   -0.0500   27.3240 C   0  0  0  1  0  4  0  0  0  0  0  0
    2.8504   -2.8313   27.3433 C   0  0  0  1  0  4  0  0  0  0  0  0
    5.6938   -1.9269   26.7029 C   0  0  0  1  0  4  0  0  0  0  0  0
    6.3064   -3.2153   27.2239 C   0  0  0  1  0  4  0  0  0  0  0  0
    3.5580    0.6920   28.5700 C   0  0  0  1  0  4  0  0  0  0  0  0
    4.7240    1.3610   29.2750 C   0  0  0  1  0  4  0  0  0  0  0  0
   10.8255   12.0962   27.2981 C   0  0  0  1  0  3  0  0  0  0  0  0
   11.4695   12.2043   28.5293 C   0  0  0  1  0  3  0  0  0  0  0  0
    3.8803   -2.3755   28.3641 C   0  0  0  1  0  4  0  0  0  0  0  0
    4.6814    4.6452   27.4540 O   0  0  0  1  0  2  0  0  0  0  0  0
    5.0137    7.4164   25.8803 I   0  0  0  1  0  1  0  0  0  0  0  0
   12.4997   11.1639   30.0991 H   0  0  0  1  0  1  0  0  0  0  0  0
   12.9182    8.7298   30.0175 H   0  0  0  1  0  1  0  0  0  0  0  0
    4.7370    2.8836   27.9673 H   0  0  0  1  0  1  0  0  0  0  0  0
    4.6882    3.8124   26.9959 H   0  0  0  1  0  1  0  0  0  0  0  0
    8.0057    7.6454   26.7484 H   0  0  0  1  0  1  0  0  0  0  0  0
    7.3643    2.4332   29.0731 H   0  0  0  1  0  1  0  0  0  0  0  0
    6.0953    3.3009   30.0026 H   0  0  0  1  0  1  0  0  0  0  0  0
    5.4188   -1.0066   28.5035 H   0  0  0  1  0  1  0  0  0  0  0  0
    6.7160    0.7116   27.6824 H   0  0  0  1  0  1  0  0  0  0  0  0
    6.6342    2.1468   26.6055 H   0  0  0  1  0  1  0  0  0  0  0  0
    8.8598    4.2543   29.1719 H   0  0  0  1  0  1  0  0  0  0  0  0
   12.9529    6.6344   29.1121 H   0  0  0  1  0  1  0  0  0  0  0  0
   12.8948    7.4087   27.4929 H   0  0  0  1  0  1  0  0  0  0  0  0
   11.2100    8.7608   26.8021 H   0  0  0  1  0  1  0  0  0  0  0  0
    5.4245    0.1680   25.6867 H   0  0  0  1  0  1  0  0  0  0  0  0
    4.3579    1.5876   25.9568 H   0  0  0  1  0  1  0  0  0  0  0  0
   10.2427   10.7599   25.7215 H   0  0  0  1  0  1  0  0  0  0  0  0
    3.1597   -0.3441   26.7290 H   0  0  0  1  0  1  0  0  0  0  0  0
    3.3652   -3.2393   26.4613 H   0  0  0  1  0  1  0  0  0  0  0  0
    2.2306   -1.9740   27.0407 H   0  0  0  1  0  1  0  0  0  0  0  0
    2.2114   -3.6085   27.7883 H   0  0  0  1  0  1  0  0  0  0  0  0
    6.4970   -1.2214   26.4438 H   0  0  0  1  0  1  0  0  0  0  0  0
    5.0939   -2.1454   25.8062 H   0  0  0  1  0  1  0  0  0  0  0  0
    6.9494   -3.6560   26.4483 H   0  0  0  1  0  1  0  0  0  0  0  0
    5.5059   -3.9235   27.4828 H   0  0  0  1  0  1  0  0  0  0  0  0
    6.9087   -3.0000   28.1200 H   0  0  0  1  0  1  0  0  0  0  0  0
    3.0835   -0.0237   29.2565 H   0  0  0  1  0  1  0  0  0  0  0  0
    2.8259    1.4587   28.2750 H   0  0  0  1  0  1  0  0  0  0  0  0
    4.3473    1.9482   30.1252 H   0  0  0  1  0  1  0  0  0  0  0  0
    5.4199    0.5905   29.6402 H   0  0  0  1  0  1  0  0  0  0  0  0
   10.3976   12.9727   26.8254 H   0  0  0  1  0  1  0  0  0  0  0  0
   11.5510   13.1694   29.0166 H   0  0  0  1  0  1  0  0  0  0  0  0
    3.3609   -1.9536   29.2376 H   0  0  0  1  0  1  0  0  0  0  0  0
    4.4844   -3.2397   28.6790 H   0  0  0  1  0  1  0  0  0  0  0  0
  1 14  1  0  0  0  0
  1 15  1  0  0  0  0
  1 32  1  0  0  0  0
  2  8  1  0  0  0  0
  2  9  1  0  0  0  0
  2 25  1  0  0  0  0
  2 33  1  0  0  0  0
  3 20  1  0  0  0  0
  3 22  1  0  0  0  0
  3 28  1  0  0  0  0
  3 38  1  0  0  0  0
  4 15  2  0  0  0  0
  4 27  1  0  0  0  0
  4 31  1  0  0  0  0
  5  7  2  0  0  0  0
  5 10  1  0  0  0  0
  5 11  1  0  0  0  0
  6  8  1  0  0  0  0
  6 10  2  0  0  0  0
  6 16  1  0  0  0  0
  7 12  1  0  0  0  0
  7 35  1  0  0  0  0
  8 36  1  0  0  0  0
  8 37  1  0  0  0  0
  9 18  1  0  0  0  0
  9 39  1  0  0  0  0
  9 40  1  0  0  0  0
 10 41  1  0  0  0  0
 11 13  3  0  0  0  0
 12 16  2  0  0  0  0
 12 30  1  0  0  0  0
 13 14  1  0  0  0  0
 14 42  1  0  0  0  0
 14 43  1  0  0  0  0
 15 17  1  0  0  0  0
 16 29  1  0  0  0  0
 17 19  2  0  0  0  0
 17 44  1  0  0  0  0
 18 20  1  0  0  0  0
 18 45  1  0  0  0  0
 18 46  1  0  0  0  0
 19 26  1  0  0  0  0
 19 47  1  0  0  0  0
 20 24  1  0  0  0  0
 20 48  1  0  0  0  0
 21 28  1  0  0  0  0
 21 49  1  0  0  0  0
 21 50  1  0  0  0  0
 21 51  1  0  0  0  0
 22 23  1  0  0  0  0
 22 52  1  0  0  0  0
 22 53  1  0  0  0  0
 23 54  1  0  0  0  0
 23 55  1  0  0  0  0
 23 56  1  0  0  0  0
 24 25  1  0  0  0  0
 24 57  1  0  0  0  0
 24 58  1  0  0  0  0
 25 59  1  0  0  0  0
 25 60  1  0  0  0  0
 26 27  2  0  0  0  0
 26 61  1  0  0  0  0
 27 62  1  0  0  0  0
 28 63  1  0  0  0  0
 28 64  1  0  0  0  0
 29 34  1  0  0  0  0
M  END
> <ConfScore>
-0.460113 

$$$$
4agq


 64 66  0  0  0  0  0  0  0  0999 V2000
   13.1963    6.4019   29.3669 N   0  0  0  1  0  3  0  0  0  0  0  0
    5.4320    2.2550   28.3390 N   0  3  0  1  0  4  0  0  0  0  0  0
    4.8039   -1.3070   27.7628 N   0  3  0  1  0  4  0  0  0  0  0  0
   13.6763    5.2789   31.4977 C   0  0  0  1  0  3  0  0  0  0  0  0
    8.5748    5.9961   27.9781 C   0  0  0  1  0  3  0  0  0  0  0  0
    6.8799    4.3500   28.3599 C   0  0  0  1  0  3  0  0  0  0  0  0
    7.6878    6.7185   27.2108 C   0  0  0  1  0  3  0  0  0  0  0  0
    6.4640    3.0610   28.9950 C   0  0  0  1  0  4  0  0  0  0  0  0
    6.0520    1.4770   27.2550 C   0  0  0  1  0  4  0  0  0  0  0  0
    8.1652    4.8245   28.5654 C   0  0  0  1  0  3  0  0  0  0  0  0
    9.9121    6.4627   28.1616 C   0  0  0  1  0  2  0  0  0  0  0  0
    6.3876    6.2645   27.0259 C   0  0  0  1  0  3  0  0  0  0  0  0
   11.0468    6.8108   28.3471 C   0  0  0  1  0  2  0  0  0  0  0  0
   12.4231    7.2906   28.5361 C   0  0  0  1  0  4  0  0  0  0  0  0
   12.9076    6.1272   30.6955 C   0  0  0  1  0  3  0  0  0  0  0  0
    5.9794    5.0810   27.6033 C   0  0  0  1  0  3  0  0  0  0  0  0
   11.7813    6.7208   31.2831 C   0  0  0  1  0  3  0  0  0  0  0  0
    4.9600    0.8100   26.4490 C   0  0  0  1  0  4  0  0  0  0  0  0
   11.4409    6.4791   32.6186 C   0  0  0  1  0  3  0  0  0  0  0  0
    4.0370   -0.0500   27.3240 C   0  0  0  1  0  4  0  0  0  0  0  0
    2.8504   -2.8313   27.3433 C   0  0  0  1  0  4  0  0  0  0  0  0
    5.6938   -1.9269   26.7029 C   0  0  0  1  0  4  0  0  0  0  0  0
    6.3064   -3.2153   27.2239 C   0  0  0  1  0  4  0  0  0  0  0  0
    3.5580    0.6920   28.5700 C   0  0  0  1  0  4  0  0  0  0  0  0
    4.7240    1.3610   29.2750 C   0  0  0  1  0  4  0  0  0  0  0  0
   12.2226    5.6324   33.3964 C   0  0  0  1  0  3  0  0  0  0  0  0
   13.3489    5.0334   32.8351 C   0  0  0  1  0  3  0  0  0  0  0  0
    3.8803   -2.3755   28.3641 C   0  0  0  1  0  4  0  0  0  0  0  0
    4.6898    4.6304   27.4293 O   0  0  0  1  0  2  0  0  0  0  0  0
    5.0244    7.3978   25.8496 I   0  0  0  1  0  1  0  0  0  0  0  0
   14.5499    4.7976   31.0716 H   0  0  0  1  0  1  0  0  0  0  0  0
   14.0163    5.9418   28.9473 H   0  0  0  1  0  1  0  0  0  0  0  0
    4.7370    2.8836   27.9673 H   0  0  0  1  0  1  0  0  0  0  0  0
    4.7059    3.7960   26.9742 H   0  0  0  1  0  1  0  0  0  0  0  0
    8.0056    7.6457   26.7491 H   0  0  0  1  0  1  0  0  0  0  0  0
    7.3643    2.4332   29.0731 H   0  0  0  1  0  1  0  0  0  0  0  0
    6.0953    3.3009   30.0026 H   0  0  0  1  0  1  0  0  0  0  0  0
    5.4188   -1.0066   28.5035 H   0  0  0  1  0  1  0  0  0  0  0  0
    6.7160    0.7116   27.6824 H   0  0  0  1  0  1  0  0  0  0  0  0
    6.6342    2.1468   26.6055 H   0  0  0  1  0  1  0  0  0  0  0  0
    8.8514    4.2677   29.1935 H   0  0  0  1  0  1  0  0  0  0  0  0
   12.9096    7.3701   27.5521 H   0  0  0  1  0  1  0  0  0  0  0  0
   12.3922    8.2823   29.0098 H   0  0  0  1  0  1  0  0  0  0  0  0
   11.1614    7.3823   30.6888 H   0  0  0  1  0  1  0  0  0  0  0  0
    5.4245    0.1680   25.6867 H   0  0  0  1  0  1  0  0  0  0  0  0
    4.3579    1.5876   25.9568 H   0  0  0  1  0  1  0  0  0  0  0  0
   10.5655    6.9526   33.0468 H   0  0  0  1  0  1  0  0  0  0  0  0
    3.1597   -0.3441   26.7290 H   0  0  0  1  0  1  0  0  0  0  0  0
    3.3652   -3.2393   26.4613 H   0  0  0  1  0  1  0  0  0  0  0  0
    2.2306   -1.9740   27.0407 H   0  0  0  1  0  1  0  0  0  0  0  0
    2.2114   -3.6085   27.7883 H   0  0  0  1  0  1  0  0  0  0  0  0
    6.4970   -1.2214   26.4438 H   0  0  0  1  0  1  0  0  0  0  0  0
    5.0939   -2.1454   25.8062 H   0  0  0  1  0  1  0  0  0  0  0  0
    6.9494   -3.6560   26.4483 H   0  0  0  1  0  1  0  0  0  0  0  0
    5.5059   -3.9235   27.4828 H   0  0  0  1  0  1  0  0  0  0  0  0
    6.9087   -3.0000   28.1200 H   0  0  0  1  0  1  0  0  0  0  0  0
    3.0835   -0.0237   29.2565 H   0  0  0  1  0  1  0  0  0  0  0  0
    2.8259    1.4587   28.2750 H   0  0  0  1  0  1  0  0  0  0  0  0
    4.3473    1.9482   30.1252 H   0  0  0  1  0  1  0  0  0  0  0  0
    5.4199    0.5905   29.6402 H   0  0  0  1  0  1  0  0  0  0  0  0
   11.9587    5.4411   34.4300 H   0  0  0  1  0  1  0  0  0  0  0  0
   13.9705    4.3776   33.4343 H   0  0  0  1  0  1  0  0  0  0  0  0
    3.3609   -1.9536   29.2376 H   0  0  0  1  0  1  0  0  0  0  0  0
    4.4844   -3.2397   28.6790 H   0  0  0  1  0  1  0  0  0  0  0  0
  1 14  1  0  0  0  0
  1 15  1  0  0  0  0
  1 32  1  0  0  0  0
  2  8  1  0  0  0  0
  2  9  1  0  0  0  0
  2 25  1  0  0  0  0
  2 33  1  0  0  0  0
  3 20  1  0  0  0  0
  3 22  1  0  0  0  0
  3 28  1  0  0  0  0
  3 38  1  0  0  0  0
  4 15  2  0  0  0  0
  4 27  1  0  0  0  0
  4 31  1  0  0  0  0
  5  7  2  0  0  0  0
  5 10  1  0  0  0  0
  5 11  1  0  0  0  0
  6  8  1  0  0  0  0
  6 10  2  0  0  0  0
  6 16  1  0  0  0  0
  7 12  1  0  0  0  0
  7 35  1  0  0  0  0
  8 36  1  0  0  0  0
  8 37  1  0  0  0  0
  9 18  1  0  0  0  0
  9 39  1  0  0  0  0
  9 40  1  0  0  0  0
 10 41  1  0  0  0  0
 11 13  3  0  0  0  0
 12 16  2  0  0  0  0
 12 30  1  0  0  0  0
 13 14  1  0  0  0  0
 14 42  1  0  0  0  0
 14 43  1  0  0  0  0
 15 17  1  0  0  0  0
 16 29  1  0  0  0  0
 17 19  2  0  0  0  0
 17 44  1  0  0  0  0
 18 20  1  0  0  0  0
 18 45  1  0  0  0  0
 18 46  1  0  0  0  0
 19 26  1  0  0  0  0
 19 47  1  0  0  0  0
 20 24  1  0  0  0  0
 20 48  1  0  0  0  0
 21 28  1  0  0  0  0
 21 49  1  0  0  0  0
 21 50  1  0  0  0  0
 21 51  1  0  0  0  0
 22 23  1  0  0  0  0
 22 52  1  0  0  0  0
 22 53  1  0  0  0  0
 23 54  1  0  0  0  0
 23 55  1  0  0  0  0
 23 56  1  0  0  0  0
 24 25  1  0  0  0  0
 24 57  1  0  0  0  0
 24 58  1  0  0  0  0
 25 59  1  0  0  0  0
 25 60  1  0  0  0  0
 26 27  2  0  0  0  0
 26 61  1  0  0  0  0
 27 62  1  0  0  0  0
 28 63  1  0  0  0  0
 28 64  1  0  0  0  0
 29 34  1  0  0  0  0
M  END
> <ConfScore>
-0.460113 

$$$$
4agq


 64 66  0  0  0  0  0  0  0  0999 V2000
  124.3116   99.8578  -49.1085 N   0  0  0  1  0  3  0  0  0  0  0  0
  123.9580  107.6030  -44.7890 N   0  3  0  1  0  4  0  0  0  0  0  0
  125.4500  111.6190  -44.1530 N   0  3  0  1  0  4  0  0  0  0  0  0
  124.6858   99.9728  -51.5330 C   0  0  0  1  0  3  0  0  0  0  0  0
  124.4171  102.7407  -45.2189 C   0  0  0  1  0  3  0  0  0  0  0  0
  123.8758  105.0884  -44.9066 C   0  0  0  1  0  3  0  0  0  0  0  0
  124.7737  102.6427  -43.8668 C   0  0  0  1  0  3  0  0  0  0  0  0
  123.3850  106.3880  -45.4850 C   0  0  0  1  0  4  0  0  0  0  0  0
  122.9790  108.7410  -44.8490 C   0  0  0  1  0  4  0  0  0  0  0  0
  123.9807  103.9652  -45.7380 C   0  0  0  1  0  3  0  0  0  0  0  0
  124.5324  101.6160  -46.0915 C   0  0  0  1  0  2  0  0  0  0  0  0
  124.6808  103.7617  -43.0274 C   0  0  0  1  0  3  0  0  0  0  0  0
  124.6103  100.7014  -46.8665 C   0  0  0  1  0  2  0  0  0  0  0  0
  124.7289   99.5442  -47.7648 C   0  0  0  1  0  4  0  0  0  0  0  0
  125.1196   99.7232  -50.2278 C   0  0  0  1  0  3  0  0  0  0  0  0
  124.2269  104.9746  -43.5530 C   0  0  0  1  0  3  0  0  0  0  0  0
  126.4487   99.3088  -50.0607 C   0  0  0  1  0  3  0  0  0  0  0  0
  123.5670  109.9230  -44.0960 C   0  0  0  1  0  4  0  0  0  0  0  0
  127.3090   99.1548  -51.1536 C   0  0  0  1  0  3  0  0  0  0  0  0
  124.9010  110.3060  -44.7320 C   0  0  0  1  0  4  0  0  0  0  0  0
  125.1637  114.1076  -43.9526 C   0  0  0  1  0  4  0  0  0  0  0  0
  125.8040  111.5799  -42.6789 C   0  0  0  1  0  4  0  0  0  0  0  0
  126.3345  112.9316  -42.2334 C   0  0  0  1  0  4  0  0  0  0  0  0
  125.9010  109.1490  -44.6010 C   0  0  0  1  0  4  0  0  0  0  0  0
  125.3410  107.9150  -45.2920 C   0  0  0  1  0  4  0  0  0  0  0  0
  126.8540   99.4108  -52.4421 C   0  0  0  1  0  3  0  0  0  0  0  0
  125.5377   99.8270  -52.6327 C   0  0  0  1  0  3  0  0  0  0  0  0
  124.5315  112.8147  -44.4413 C   0  0  0  1  0  4  0  0  0  0  0  0
  124.1354  106.0944  -42.7567 O   0  0  0  1  0  2  0  0  0  0  0  0
  125.1863  103.6386  -40.9644 I   0  0  0  1  0  1  0  0  0  0  0  0
  123.6610  100.2874  -51.6977 H   0  0  0  1  0  1  0  0  0  0  0  0
  123.3520  100.2048  -49.2463 H   0  0  0  1  0  1  0  0  0  0  0  0
  124.0600  107.3680  -43.8140 H   0  0  0  1  0  1  0  0  0  0  0  0
  124.4017  105.8743  -41.8711 H   0  0  0  1  0  1  0  0  0  0  0  0
  125.1233  101.6978  -43.4680 H   0  0  0  1  0  1  0  0  0  0  0  0
  122.2887  106.4181  -45.3960 H   0  0  0  1  0  1  0  0  0  0  0  0
  123.6677  106.4274  -46.5468 H   0  0  0  1  0  1  0  0  0  0  0  0
  126.3137  111.7932  -44.6434 H   0  0  0  1  0  1  0  0  0  0  0  0
  122.0300  108.4400  -44.3820 H   0  0  0  1  0  1  0  0  0  0  0  0
  122.8000  109.0220  -45.8970 H   0  0  0  1  0  1  0  0  0  0  0  0
  123.7228  104.0454  -46.7880 H   0  0  0  1  0  1  0  0  0  0  0  0
  125.7797   99.2176  -47.7862 H   0  0  0  1  0  1  0  0  0  0  0  0
  124.1004   98.7286  -47.3792 H   0  0  0  1  0  1  0  0  0  0  0  0
  126.8174   99.1042  -49.0622 H   0  0  0  1  0  1  0  0  0  0  0  0
  123.7270  109.6460  -43.0440 H   0  0  0  1  0  1  0  0  0  0  0  0
  122.8750  110.7760  -44.1500 H   0  0  0  1  0  1  0  0  0  0  0  0
  128.3317   98.8345  -50.9945 H   0  0  0  1  0  1  0  0  0  0  0  0
  124.7240  110.4720  -45.8050 H   0  0  0  1  0  1  0  0  0  0  0  0
  126.1318  114.2539  -44.4536 H   0  0  0  1  0  1  0  0  0  0  0  0
  125.3200  114.0505  -42.8649 H   0  0  0  1  0  1  0  0  0  0  0  0
  124.4983  114.9524  -44.1848 H   0  0  0  1  0  1  0  0  0  0  0  0
  126.5745  110.8133  -42.5097 H   0  0  0  1  0  1  0  0  0  0  0  0
  124.9045  111.3313  -42.0951 H   0  0  0  1  0  1  0  0  0  0  0  0
  126.5881  112.8921  -41.1642 H   0  0  0  1  0  1  0  0  0  0  0  0
  125.5660  113.7002  -42.4002 H   0  0  0  1  0  1  0  0  0  0  0  0
  127.2354  113.1825  -42.8144 H   0  0  0  1  0  1  0  0  0  0  0  0
  126.0690  108.9290  -43.5370 H   0  0  0  1  0  1  0  0  0  0  0  0
  126.8540  109.4330  -45.0720 H   0  0  0  1  0  1  0  0  0  0  0  0
  125.2990  108.0960  -46.3760 H   0  0  0  1  0  1  0  0  0  0  0  0
  126.0010  107.0580  -45.0890 H   0  0  0  1  0  1  0  0  0  0  0  0
  127.5177   99.2887  -53.2902 H   0  0  0  1  0  1  0  0  0  0  0  0
  125.1740  100.0372  -53.6323 H   0  0  0  1  0  1  0  0  0  0  0  0
  123.5712  112.6647  -43.9257 H   0  0  0  1  0  1  0  0  0  0  0  0
  124.3583  112.8841  -45.5258 H   0  0  0  1  0  1  0  0  0  0  0  0
  1 14  1  0  0  0  0
  1 15  1  0  0  0  0
  1 32  1  0  0  0  0
  2  8  1  0  0  0  0
  2  9  1  0  0  0  0
  2 25  1  0  0  0  0
  2 33  1  0  0  0  0
  3 20  1  0  0  0  0
  3 22  1  0  0  0  0
  3 28  1  0  0  0  0
  3 38  1  0  0  0  0
  4 15  2  0  0  0  0
  4 27  1  0  0  0  0
  4 31  1  0  0  0  0
  5  7  2  0  0  0  0
  5 10  1  0  0  0  0
  5 11  1  0  0  0  0
  6  8  1  0  0  0  0
  6 10  2  0  0  0  0
  6 16  1  0  0  0  0
  7 12  1  0  0  0  0
  7 35  1  0  0  0  0
  8 36  1  0  0  0  0
  8 37  1  0  0  0  0
  9 18  1  0  0  0  0
  9 39  1  0  0  0  0
  9 40  1  0  0  0  0
 10 41  1  0  0  0  0
 11 13  3  0  0  0  0
 12 16  2  0  0  0  0
 12 30  1  0  0  0  0
 13 14  1  0  0  0  0
 14 42  1  0  0  0  0
 14 43  1  0  0  0  0
 15 17  1  0  0  0  0
 16 29  1  0  0  0  0
 17 19  2  0  0  0  0
 17 44  1  0  0  0  0
 18 20  1  0  0  0  0
 18 45  1  0  0  0  0
 18 46  1  0  0  0  0
 19 26  1  0  0  0  0
 19 47  1  0  0  0  0
 20 24  1  0  0  0  0
 20 48  1  0  0  0  0
 21 28  1  0  0  0  0
 21 49  1  0  0  0  0
 21 50  1  0  0  0  0
 21 51  1  0  0  0  0
 22 23  1  0  0  0  0
 22 52  1  0  0  0  0
 22 53  1  0  0  0  0
 23 54  1  0  0  0  0
 23 55  1  0  0  0  0
 23 56  1  0  0  0  0
 24 25  1  0  0  0  0
 24 57  1  0  0  0  0
 24 58  1  0  0  0  0
 25 59  1  0  0  0  0
 25 60  1  0  0  0  0
 26 27  2  0  0  0  0
 26 61  1  0  0  0  0
 27 62  1  0  0  0  0
 28 63  1  0  0  0  0
 28 64  1  0  0  0  0
 29 34  1  0  0  0  0
M  END
> <ConfScore>
-0.458388 

$$$$
4agq


 64 66  0  0  0  0  0  0  0  0999 V2000
   13.3820    5.9535   29.6257 N   0  0  0  1  0  3  0  0  0  0  0  0
    5.4320    2.2550   28.3390 N   0  3  0  1  0  4  0  0  0  0  0  0
    4.8039   -1.3070   27.7628 N   0  3  0  1  0  4  0  0  0  0  0  0
   13.2203    3.8626   28.3476 C   0  0  0  1  0  3  0  0  0  0  0  0
    8.8802    5.7021   27.8589 C   0  0  0  1  0  3  0  0  0  0  0  0
    7.0338    4.2334   28.2611 C   0  0  0  1  0  3  0  0  0  0  0  0
    8.1227    6.3868   26.9343 C   0  0  0  1  0  3  0  0  0  0  0  0
    6.4640    3.0610   28.9950 C   0  0  0  1  0  4  0  0  0  0  0  0
    6.0520    1.4770   27.2550 C   0  0  0  1  0  4  0  0  0  0  0  0
    8.3301    4.6399   28.5329 C   0  0  0  1  0  3  0  0  0  0  0  0
   10.2293    6.0946   28.1147 C   0  0  0  1  0  2  0  0  0  0  0  0
    6.8115    6.0041   26.6791 C   0  0  0  1  0  3  0  0  0  0  0  0
   11.3678    6.3839   28.3668 C   0  0  0  1  0  2  0  0  0  0  0  0
   12.7562    6.7875   28.6303 C   0  0  0  1  0  4  0  0  0  0  0  0
   13.5693    4.5857   29.4919 C   0  0  0  1  0  3  0  0  0  0  0  0
    6.2627    4.9287   27.3448 C   0  0  0  1  0  3  0  0  0  0  0  0
   14.1346    3.8697   30.5568 C   0  0  0  1  0  3  0  0  0  0  0  0
    4.9600    0.8100   26.4490 C   0  0  0  1  0  4  0  0  0  0  0  0
   14.3457    2.4886   30.4783 C   0  0  0  1  0  3  0  0  0  0  0  0
    4.0370   -0.0500   27.3240 C   0  0  0  1  0  4  0  0  0  0  0  0
    2.8688   -2.7802   27.1302 C   0  0  0  1  0  4  0  0  0  0  0  0
    5.8033   -1.8417   26.7554 C   0  0  0  1  0  4  0  0  0  0  0  0
    5.1148   -2.1087   25.4282 C   0  0  0  1  0  4  0  0  0  0  0  0
    3.5580    0.6920   28.5700 C   0  0  0  1  0  4  0  0  0  0  0  0
    4.7240    1.3610   29.2750 C   0  0  0  1  0  4  0  0  0  0  0  0
   13.9914    1.7921   29.3285 C   0  0  0  1  0  3  0  0  0  0  0  0
   13.4309    2.4829   28.2557 C   0  0  0  1  0  3  0  0  0  0  0  0
    3.8672   -2.4330   28.2223 C   0  0  0  1  0  4  0  0  0  0  0  0
    4.9613    4.5499   27.1011 O   0  0  0  1  0  2  0  0  0  0  0  0
    5.6488    7.0794   25.2585 I   0  0  0  1  0  1  0  0  0  0  0  0
   12.7736    4.3850   27.5087 H   0  0  0  1  0  1  0  0  0  0  0  0
   13.7107    6.4019   30.4923 H   0  0  0  1  0  1  0  0  0  0  0  0
    4.7370    2.8836   27.9673 H   0  0  0  1  0  1  0  0  0  0  0  0
    4.9429    3.6374   26.8355 H   0  0  0  1  0  1  0  0  0  0  0  0
    8.5515    7.2283   26.4033 H   0  0  0  1  0  1  0  0  0  0  0  0
    7.3017    2.3868   29.2285 H   0  0  0  1  0  1  0  0  0  0  0  0
    6.0298    3.4442   29.9296 H   0  0  0  1  0  1  0  0  0  0  0  0
    5.3413   -1.0306   28.5701 H   0  0  0  1  0  1  0  0  0  0  0  0
    6.7160    0.7116   27.6824 H   0  0  0  1  0  1  0  0  0  0  0  0
    6.6342    2.1468   26.6055 H   0  0  0  1  0  1  0  0  0  0  0  0
    8.9133    4.1164   29.2820 H   0  0  0  1  0  1  0  0  0  0  0  0
   13.3306    6.7154   27.6943 H   0  0  0  1  0  1  0  0  0  0  0  0
   12.7631    7.8284   28.9842 H   0  0  0  1  0  1  0  0  0  0  0  0
   14.4147    4.3989   31.4603 H   0  0  0  1  0  1  0  0  0  0  0  0
    5.4245    0.1680   25.6867 H   0  0  0  1  0  1  0  0  0  0  0  0
    4.3579    1.5876   25.9568 H   0  0  0  1  0  1  0  0  0  0  0  0
   14.7857    1.9614   31.3163 H   0  0  0  1  0  1  0  0  0  0  0  0
    3.1597   -0.3441   26.7290 H   0  0  0  1  0  1  0  0  0  0  0  0
    2.2535   -1.8975   26.9026 H   0  0  0  1  0  1  0  0  0  0  0  0
    2.2196   -3.5993   27.4745 H   0  0  0  1  0  1  0  0  0  0  0  0
    3.4093   -3.0949   26.2251 H   0  0  0  1  0  1  0  0  0  0  0  0
    6.2368   -2.7788   27.1349 H   0  0  0  1  0  1  0  0  0  0  0  0
    6.6036   -1.1005   26.6079 H   0  0  0  1  0  1  0  0  0  0  0  0
    5.8477   -2.4960   24.7057 H   0  0  0  1  0  1  0  0  0  0  0  0
    4.6812   -1.1734   25.0454 H   0  0  0  1  0  1  0  0  0  0  0  0
    4.3147   -2.8512   25.5719 H   0  0  0  1  0  1  0  0  0  0  0  0
    3.0835   -0.0237   29.2565 H   0  0  0  1  0  1  0  0  0  0  0  0
    2.8259    1.4587   28.2750 H   0  0  0  1  0  1  0  0  0  0  0  0
    4.3473    1.9482   30.1252 H   0  0  0  1  0  1  0  0  0  0  0  0
    5.4199    0.5905   29.6402 H   0  0  0  1  0  1  0  0  0  0  0  0
   14.1508    0.7218   29.2670 H   0  0  0  1  0  1  0  0  0  0  0  0
   13.1580    1.9516   27.3508 H   0  0  0  1  0  1  0  0  0  0  0  0
    3.3215   -2.1049   29.1197 H   0  0  0  1  0  1  0  0  0  0  0  0
    4.4652   -3.3249   28.4627 H   0  0  0  1  0  1  0  0  0  0  0  0
  1 14  1  0  0  0  0
  1 15  1  0  0  0  0
  1 32  1  0  0  0  0
  2  8  1  0  0  0  0
  2  9  1  0  0  0  0
  2 25  1  0  0  0  0
  2 33  1  0  0  0  0
  3 20  1  0  0  0  0
  3 22  1  0  0  0  0
  3 28  1  0  0  0  0
  3 38  1  0  0  0  0
  4 15  2  0  0  0  0
  4 27  1  0  0  0  0
  4 31  1  0  0  0  0
  5  7  2  0  0  0  0
  5 10  1  0  0  0  0
  5 11  1  0  0  0  0
  6  8  1  0  0  0  0
  6 10  2  0  0  0  0
  6 16  1  0  0  0  0
  7 12  1  0  0  0  0
  7 35  1  0  0  0  0
  8 36  1  0  0  0  0
  8 37  1  0  0  0  0
  9 18  1  0  0  0  0
  9 39  1  0  0  0  0
  9 40  1  0  0  0  0
 10 41  1  0  0  0  0
 11 13  3  0  0  0  0
 12 16  2  0  0  0  0
 12 30  1  0  0  0  0
 13 14  1  0  0  0  0
 14 42  1  0  0  0  0
 14 43  1  0  0  0  0
 15 17  1  0  0  0  0
 16 29  1  0  0  0  0
 17 19  2  0  0  0  0
 17 44  1  0  0  0  0
 18 20  1  0  0  0  0
 18 45  1  0  0  0  0
 18 46  1  0  0  0  0
 19 26  1  0  0  0  0
 19 47  1  0  0  0  0
 20 24  1  0  0  0  0
 20 48  1  0  0  0  0
 21 28  1  0  0  0  0
 21 49  1  0  0  0  0
 21 50  1  0  0  0  0
 21 51  1  0  0  0  0
 22 23  1  0  0  0  0
 22 52  1  0  0  0  0
 22 53  1  0  0  0  0
 23 54  1  0  0  0  0
 23 55  1  0  0  0  0
 23 56  1  0  0  0  0
 24 25  1  0  0  0  0
 24 57  1  0  0  0  0
 24 58  1  0  0  0  0
 25 59  1  0  0  0  0
 25 60  1  0  0  0  0
 26 27  2  0  0  0  0
 26 61  1  0  0  0  0
 27 62  1  0  0  0  0
 28 63  1  0  0  0  0
 28 64  1  0  0  0  0
 29 34  1  0  0  0  0
M  END
> <ConfScore>
-0.455343 

$$$$
4agq


 64 66  0  0  0  0  0  0  0  0999 V2000
   13.3820    5.9535   29.6257 N   0  0  0  1  0  3  0  0  0  0  0  0
    5.4320    2.2550   28.3390 N   0  3  0  1  0  4  0  0  0  0  0  0
    4.8039   -1.3070   27.7628 N   0  3  0  1  0  4  0  0  0  0  0  0
   13.2203    3.8626   28.3476 C   0  0  0  1  0  3  0  0  0  0  0  0
    8.8802    5.7021   27.8589 C   0  0  0  1  0  3  0  0  0  0  0  0
    7.0338    4.2334   28.2611 C   0  0  0  1  0  3  0  0  0  0  0  0
    8.1227    6.3868   26.9343 C   0  0  0  1  0  3  0  0  0  0  0  0
    6.4640    3.0610   28.9950 C   0  0  0  1  0  4  0  0  0  0  0  0
    6.0520    1.4770   27.2550 C   0  0  0  1  0  4  0  0  0  0  0  0
    8.3301    4.6399   28.5329 C   0  0  0  1  0  3  0  0  0  0  0  0
   10.2293    6.0946   28.1147 C   0  0  0  1  0  2  0  0  0  0  0  0
    6.8115    6.0041   26.6791 C   0  0  0  1  0  3  0  0  0  0  0  0
   11.3678    6.3839   28.3668 C   0  0  0  1  0  2  0  0  0  0  0  0
   12.7562    6.7875   28.6303 C   0  0  0  1  0  4  0  0  0  0  0  0
   13.5693    4.5857   29.4919 C   0  0  0  1  0  3  0  0  0  0  0  0
    6.2627    4.9287   27.3448 C   0  0  0  1  0  3  0  0  0  0  0  0
   14.1346    3.8697   30.5568 C   0  0  0  1  0  3  0  0  0  0  0  0
    4.9600    0.8100   26.4490 C   0  0  0  1  0  4  0  0  0  0  0  0
   14.3457    2.4886   30.4783 C   0  0  0  1  0  3  0  0  0  0  0  0
    4.0370   -0.0500   27.3240 C   0  0  0  1  0  4  0  0  0  0  0  0
    4.6655   -3.6125   28.7533 C   0  0  0  1  0  4  0  0  0  0  0  0
    5.8033   -1.8417   26.7554 C   0  0  0  1  0  4  0  0  0  0  0  0
    6.5078   -3.0643   27.3175 C   0  0  0  1  0  4  0  0  0  0  0  0
    3.5580    0.6920   28.5700 C   0  0  0  1  0  4  0  0  0  0  0  0
    4.7240    1.3610   29.2750 C   0  0  0  1  0  4  0  0  0  0  0  0
   13.9914    1.7921   29.3285 C   0  0  0  1  0  3  0  0  0  0  0  0
   13.4309    2.4829   28.2557 C   0  0  0  1  0  3  0  0  0  0  0  0
    3.8672   -2.4330   28.2223 C   0  0  0  1  0  4  0  0  0  0  0  0
    4.9613    4.5499   27.1011 O   0  0  0  1  0  2  0  0  0  0  0  0
    5.6488    7.0794   25.2585 I   0  0  0  1  0  1  0  0  0  0  0  0
   12.7736    4.3850   27.5087 H   0  0  0  1  0  1  0  0  0  0  0  0
   13.7107    6.4019   30.4923 H   0  0  0  1  0  1  0  0  0  0  0  0
    4.7370    2.8836   27.9673 H   0  0  0  1  0  1  0  0  0  0  0  0
    4.9429    3.6374   26.8355 H   0  0  0  1  0  1  0  0  0  0  0  0
    8.5515    7.2283   26.4033 H   0  0  0  1  0  1  0  0  0  0  0  0
    7.3017    2.3868   29.2285 H   0  0  0  1  0  1  0  0  0  0  0  0
    6.0298    3.4442   29.9296 H   0  0  0  1  0  1  0  0  0  0  0  0
    5.3413   -1.0306   28.5701 H   0  0  0  1  0  1  0  0  0  0  0  0
    6.7160    0.7116   27.6824 H   0  0  0  1  0  1  0  0  0  0  0  0
    6.6342    2.1468   26.6055 H   0  0  0  1  0  1  0  0  0  0  0  0
    8.9133    4.1164   29.2820 H   0  0  0  1  0  1  0  0  0  0  0  0
   13.3306    6.7154   27.6943 H   0  0  0  1  0  1  0  0  0  0  0  0
   12.7631    7.8284   28.9842 H   0  0  0  1  0  1  0  0  0  0  0  0
   14.4147    4.3989   31.4603 H   0  0  0  1  0  1  0  0  0  0  0  0
    5.4245    0.1680   25.6867 H   0  0  0  1  0  1  0  0  0  0  0  0
    4.3579    1.5876   25.9568 H   0  0  0  1  0  1  0  0  0  0  0  0
   14.7857    1.9614   31.3163 H   0  0  0  1  0  1  0  0  0  0  0  0
    3.1597   -0.3441   26.7290 H   0  0  0  1  0  1  0  0  0  0  0  0
    5.3079   -4.0093   27.9536 H   0  0  0  1  0  1  0  0  0  0  0  0
    3.9749   -4.3994   29.0917 H   0  0  0  1  0  1  0  0  0  0  0  0
    5.2899   -3.2831   29.5971 H   0  0  0  1  0  1  0  0  0  0  0  0
    6.5480   -1.0633   26.5330 H   0  0  0  1  0  1  0  0  0  0  0  0
    5.2749   -2.1191   25.8305 H   0  0  0  1  0  1  0  0  0  0  0  0
    7.2298   -3.4435   26.5798 H   0  0  0  1  0  1  0  0  0  0  0  0
    5.7661   -3.8450   27.5399 H   0  0  0  1  0  1  0  0  0  0  0  0
    7.0389   -2.7899   28.2420 H   0  0  0  1  0  1  0  0  0  0  0  0
    3.0835   -0.0237   29.2565 H   0  0  0  1  0  1  0  0  0  0  0  0
    2.8259    1.4587   28.2750 H   0  0  0  1  0  1  0  0  0  0  0  0
    4.3473    1.9482   30.1252 H   0  0  0  1  0  1  0  0  0  0  0  0
    5.4199    0.5905   29.6402 H   0  0  0  1  0  1  0  0  0  0  0  0
   14.1508    0.7218   29.2670 H   0  0  0  1  0  1  0  0  0  0  0  0
   13.1580    1.9516   27.3508 H   0  0  0  1  0  1  0  0  0  0  0  0
    3.2563   -2.7648   27.3695 H   0  0  0  1  0  1  0  0  0  0  0  0
    3.2095   -2.0535   29.0188 H   0  0  0  1  0  1  0  0  0  0  0  0
  1 14  1  0  0  0  0
  1 15  1  0  0  0  0
  1 32  1  0  0  0  0
  2  8  1  0  0  0  0
  2  9  1  0  0  0  0
  2 25  1  0  0  0  0
  2 33  1  0  0  0  0
  3 20  1  0  0  0  0
  3 22  1  0  0  0  0
  3 28  1  0  0  0  0
  3 38  1  0  0  0  0
  4 15  2  0  0  0  0
  4 27  1  0  0  0  0
  4 31  1  0  0  0  0
  5  7  2  0  0  0  0
  5 10  1  0  0  0  0
  5 11  1  0  0  0  0
  6  8  1  0  0  0  0
  6 10  2  0  0  0  0
  6 16  1  0  0  0  0
  7 12  1  0  0  0  0
  7 35  1  0  0  0  0
  8 36  1  0  0  0  0
  8 37  1  0  0  0  0
  9 18  1  0  0  0  0
  9 39  1  0  0  0  0
  9 40  1  0  0  0  0
 10 41  1  0  0  0  0
 11 13  3  0  0  0  0
 12 16  2  0  0  0  0
 12 30  1  0  0  0  0
 13 14  1  0  0  0  0
 14 42  1  0  0  0  0
 14 43  1  0  0  0  0
 15 17  1  0  0  0  0
 16 29  1  0  0  0  0
 17 19  2  0  0  0  0
 17 44  1  0  0  0  0
 18 20  1  0  0  0  0
 18 45  1  0  0  0  0
 18 46  1  0  0  0  0
 19 26  1  0  0  0  0
 19 47  1  0  0  0  0
 20 24  1  0  0  0  0
 20 48  1  0  0  0  0
 21 28  1  0  0  0  0
 21 49  1  0  0  0  0
 21 50  1  0  0  0  0
 21 51  1  0  0  0  0
 22 23  1  0  0  0  0
 22 52  1  0  0  0  0
 22 53  1  0  0  0  0
 23 54  1  0  0  0  0
 23 55  1  0  0  0  0
 23 56  1  0  0  0  0
 24 25  1  0  0  0  0
 24 57  1  0  0  0  0
 24 58  1  0  0  0  0
 25 59  1  0  0  0  0
 25 60  1  0  0  0  0
 26 27  2  0  0  0  0
 26 61  1  0  0  0  0
 27 62  1  0  0  0  0
 28 63  1  0  0  0  0
 28 64  1  0  0  0  0
 29 34  1  0  0  0  0
M  END
> <ConfScore>
-0.447529 

$$$$
4agq


 64 66  0  0  0  0  0  0  0  0999 V2000
   89.9876   89.8142  -47.1835 N   0  0  0  1  0  3  0  0  0  0  0  0
   90.4980   98.3810  -44.6910 N   0  3  0  1  0  4  0  0  0  0  0  0
   92.0470  102.3711  -44.2402 N   0  3  0  1  0  4  0  0  0  0  0  0
   90.2253   90.5183  -49.5243 C   0  0  0  1  0  3  0  0  0  0  0  0
   90.0167   93.5656  -44.1213 C   0  0  0  1  0  3  0  0  0  0  0  0
   89.9319   95.9782  -44.4153 C   0  0  0  1  0  3  0  0  0  0  0  0
   89.8496   93.7073  -42.7377 C   0  0  0  1  0  3  0  0  0  0  0  0
   89.9050   97.1660  -45.3350 C   0  0  0  1  0  4  0  0  0  0  0  0
   89.5430   99.5450  -44.7170 C   0  0  0  1  0  4  0  0  0  0  0  0
   90.0570   94.6925  -44.9567 C   0  0  0  1  0  3  0  0  0  0  0  0
   90.1473   92.2611  -44.6875 C   0  0  0  1  0  2  0  0  0  0  0  0
   89.7293   95.0049  -42.2140 C   0  0  0  1  0  3  0  0  0  0  0  0
   90.2392   91.1840  -45.2118 C   0  0  0  1  0  2  0  0  0  0  0  0
   90.3735   89.8417  -45.7949 C   0  0  0  1  0  4  0  0  0  0  0  0
   90.5947   90.5679  -48.1770 C   0  0  0  1  0  3  0  0  0  0  0  0
   89.7617   96.1601  -43.0175 C   0  0  0  1  0  3  0  0  0  0  0  0
   91.6443   91.4305  -47.8301 C   0  0  0  1  0  3  0  0  0  0  0  0
   90.1750  100.7310  -44.0050 C   0  0  0  1  0  4  0  0  0  0  0  0
   92.2942   92.2138  -48.7904 C   0  0  0  1  0  3  0  0  0  0  0  0
   91.4300  101.0810  -44.8020 C   0  0  0  1  0  4  0  0  0  0  0  0
   91.8725  104.8705  -44.0449 C   0  0  0  1  0  4  0  0  0  0  0  0
   92.4295  102.3219  -42.7736 C   0  0  0  1  0  4  0  0  0  0  0  0
   93.4735  101.2434  -42.5422 C   0  0  0  1  0  4  0  0  0  0  0  0
   92.4510   99.9400  -44.6950 C   0  0  0  1  0  4  0  0  0  0  0  0
   91.8210   98.7070  -45.3220 C   0  0  0  1  0  4  0  0  0  0  0  0
   91.9072   92.1476  -50.1241 C   0  0  0  1  0  3  0  0  0  0  0  0
   90.8641   91.2998  -50.4923 C   0  0  0  1  0  3  0  0  0  0  0  0
   91.1751  103.6043  -44.5148 C   0  0  0  1  0  4  0  0  0  0  0  0
   89.6333   97.4170  -42.4695 O   0  0  0  1  0  2  0  0  0  0  0  0
   89.4875   95.2346  -40.1127 I   0  0  0  1  0  1  0  0  0  0  0  0
   89.4221   89.8554  -49.8274 H   0  0  0  1  0  1  0  0  0  0  0  0
   89.2107   89.1956  -47.4554 H   0  0  0  1  0  1  0  0  0  0  0  0
   90.6653   98.1804  -43.7173 H   0  0  0  1  0  1  0  0  0  0  0  0
   89.8773   97.3872  -41.5513 H   0  0  0  1  0  1  0  0  0  0  0  0
   89.8141   92.8398  -42.0895 H   0  0  0  1  0  1  0  0  0  0  0  0
   90.4802   96.9271  -46.2421 H   0  0  0  1  0  1  0  0  0  0  0  0
   88.8619   97.3812  -45.6079 H   0  0  0  1  0  1  0  0  0  0  0  0
   92.9071  102.5061  -44.7490 H   0  0  0  1  0  1  0  0  0  0  0  0
   88.6097   99.2655  -44.2070 H   0  0  0  1  0  1  0  0  0  0  0  0
   89.3242   99.8170  -45.7598 H   0  0  0  1  0  1  0  0  0  0  0  0
   90.1855   94.5673  -46.0259 H   0  0  0  1  0  1  0  0  0  0  0  0
   91.4233   89.5219  -45.7115 H   0  0  0  1  0  1  0  0  0  0  0  0
   89.7335   89.1448  -45.2348 H   0  0  0  1  0  1  0  0  0  0  0  0
   91.9582   91.4919  -46.7944 H   0  0  0  1  0  1  0  0  0  0  0  0
   90.4412  100.4594  -42.9733 H   0  0  0  1  0  1  0  0  0  0  0  0
   89.4803  101.5835  -43.9926 H   0  0  0  1  0  1  0  0  0  0  0  0
   93.1014   92.8726  -48.4933 H   0  0  0  1  0  1  0  0  0  0  0  0
   91.1612  101.2321  -45.8580 H   0  0  0  1  0  1  0  0  0  0  0  0
   92.8353  104.9730  -44.5663 H   0  0  0  1  0  1  0  0  0  0  0  0
   92.0487  104.8104  -42.9604 H   0  0  0  1  0  1  0  0  0  0  0  0
   91.2394  105.7423  -44.2670 H   0  0  0  1  0  1  0  0  0  0  0  0
   91.5363  102.0982  -42.1717 H   0  0  0  1  0  1  0  0  0  0  0  0
   92.8405  103.2974  -42.4717 H   0  0  0  1  0  1  0  0  0  0  0  0
   93.7433  101.2161  -41.4765 H   0  0  0  1  0  1  0  0  0  0  0  0
   94.3684  101.4647  -43.1417 H   0  0  0  1  0  1  0  0  0  0  0  0
   93.0649  100.2659  -42.8416 H   0  0  0  1  0  1  0  0  0  0  0  0
   92.6877   99.7454  -43.6392 H   0  0  0  1  0  1  0  0  0  0  0  0
   93.3719  100.2075  -45.2346 H   0  0  0  1  0  1  0  0  0  0  0  0
   91.6686   98.8909  -46.3956 H   0  0  0  1  0  1  0  0  0  0  0  0
   92.5007   97.8517  -45.1886 H   0  0  0  1  0  1  0  0  0  0  0  0
   92.4116   92.7509  -50.8700 H   0  0  0  1  0  1  0  0  0  0  0  0
   90.5483   91.2459  -51.5282 H   0  0  0  1  0  1  0  0  0  0  0  0
   90.2201  103.4977  -43.9789 H   0  0  0  1  0  1  0  0  0  0  0  0
   90.9826  103.6773  -45.5958 H   0  0  0  1  0  1  0  0  0  0  0  0
  1 14  1  0  0  0  0
  1 15  1  0  0  0  0
  1 32  1  0  0  0  0
  2  8  1  0  0  0  0
  2  9  1  0  0  0  0
  2 25  1  0  0  0  0
  2 33  1  0  0  0  0
  3 20  1  0  0  0  0
  3 22  1  0  0  0  0
  3 28  1  0  0  0  0
  3 38  1  0  0  0  0
  4 15  2  0  0  0  0
  4 27  1  0  0  0  0
  4 31  1  0  0  0  0
  5  7  2  0  0  0  0
  5 10  1  0  0  0  0
  5 11  1  0  0  0  0
  6  8  1  0  0  0  0
  6 10  2  0  0  0  0
  6 16  1  0  0  0  0
  7 12  1  0  0  0  0
  7 35  1  0  0  0  0
  8 36  1  0  0  0  0
  8 37  1  0  0  0  0
  9 18  1  0  0  0  0
  9 39  1  0  0  0  0
  9 40  1  0  0  0  0
 10 41  1  0  0  0  0
 11 13  3  0  0  0  0
 12 16  2  0  0  0  0
 12 30  1  0  0  0  0
 13 14  1  0  0  0  0
 14 42  1  0  0  0  0
 14 43  1  0  0  0  0
 15 17  1  0  0  0  0
 16 29  1  0  0  0  0
 17 19  2  0  0  0  0
 17 44  1  0  0  0  0
 18 20  1  0  0  0  0
 18 45  1  0  0  0  0
 18 46  1  0  0  0  0
 19 26  1  0  0  0  0
 19 47  1  0  0  0  0
 20 24  1  0  0  0  0
 20 48  1  0  0  0  0
 21 28  1  0  0  0  0
 21 49  1  0  0  0  0
 21 50  1  0  0  0  0
 21 51  1  0  0  0  0
 22 23  1  0  0  0  0
 22 52  1  0  0  0  0
 22 53  1  0  0  0  0
 23 54  1  0  0  0  0
 23 55  1  0  0  0  0
 23 56  1  0  0  0  0
 24 25  1  0  0  0  0
 24 57  1  0  0  0  0
 24 58  1  0  0  0  0
 25 59  1  0  0  0  0
 25 60  1  0  0  0  0
 26 27  2  0  0  0  0
 26 61  1  0  0  0  0
 27 62  1  0  0  0  0
 28 63  1  0  0  0  0
 28 64  1  0  0  0  0
 29 34  1  0  0  0  0
M  END
> <ConfScore>
-0.439132 

$$$$
4agq


 64 66  0  0  0  0  0  0  0  0999 V2000
   90.3515   89.8779  -47.2388 N   0  0  0  1  0  3  0  0  0  0  0  0
   90.4980   98.3810  -44.6910 N   0  3  0  1  0  4  0  0  0  0  0  0
   92.0470  102.3711  -44.2402 N   0  3  0  1  0  4  0  0  0  0  0  0
   91.5116   90.5191  -49.3062 C   0  0  0  1  0  3  0  0  0  0  0  0
   89.9732   93.5645  -44.1216 C   0  0  0  1  0  3  0  0  0  0  0  0
   89.9319   95.9782  -44.4153 C   0  0  0  1  0  3  0  0  0  0  0  0
   89.8474   93.7101  -42.7340 C   0  0  0  1  0  3  0  0  0  0  0  0
   89.9050   97.1660  -45.3350 C   0  0  0  1  0  4  0  0  0  0  0  0
   89.5430   99.5450  -44.7170 C   0  0  0  1  0  4  0  0  0  0  0  0
   90.0145   94.6899  -44.9587 C   0  0  0  1  0  3  0  0  0  0  0  0
   90.0603   92.2572  -44.6900 C   0  0  0  1  0  2  0  0  0  0  0  0
   89.7694   95.0102  -42.2084 C   0  0  0  1  0  3  0  0  0  0  0  0
   90.1373   91.1808  -45.2180 C   0  0  0  1  0  2  0  0  0  0  0  0
   90.2269   89.8357  -45.8033 C   0  0  0  1  0  4  0  0  0  0  0  0
   91.3902   90.5018  -47.9138 C   0  0  0  1  0  3  0  0  0  0  0  0
   89.8042   96.1642  -43.0135 C   0  0  0  1  0  3  0  0  0  0  0  0
   92.3877   91.1527  -47.1738 C   0  0  0  1  0  3  0  0  0  0  0  0
   90.1750  100.7310  -44.0050 C   0  0  0  1  0  4  0  0  0  0  0  0
   93.4595   91.7976  -47.8011 C   0  0  0  1  0  3  0  0  0  0  0  0
   91.4300  101.0810  -44.8020 C   0  0  0  1  0  4  0  0  0  0  0  0
   91.8725  104.8705  -44.0449 C   0  0  0  1  0  4  0  0  0  0  0  0
   92.4295  102.3219  -42.7736 C   0  0  0  1  0  4  0  0  0  0  0  0
   93.4735  101.2434  -42.5422 C   0  0  0  1  0  4  0  0  0  0  0  0
   92.4510   99.9400  -44.6950 C   0  0  0  1  0  4  0  0  0  0  0  0
   91.8210   98.7070  -45.3220 C   0  0  0  1  0  4  0  0  0  0  0  0
   93.5570   91.8021  -49.1879 C   0  0  0  1  0  3  0  0  0  0  0  0
   92.5756   91.1645  -49.9447 C   0  0  0  1  0  3  0  0  0  0  0  0
   91.1751  103.6043  -44.5148 C   0  0  0  1  0  4  0  0  0  0  0  0
   89.7179   97.4237  -42.4633 O   0  0  0  1  0  2  0  0  0  0  0  0
   89.5906   95.2457  -40.1014 I   0  0  0  1  0  1  0  0  0  0  0  0
   90.7610   90.0183  -49.9080 H   0  0  0  1  0  1  0  0  0  0  0  0
   89.6220   89.4156  -47.7994 H   0  0  0  1  0  1  0  0  0  0  0  0
   90.6653   98.1804  -43.7173 H   0  0  0  1  0  1  0  0  0  0  0  0
   89.9864   97.3890  -41.5522 H   0  0  0  1  0  1  0  0  0  0  0  0
   89.8113   92.8438  -42.0843 H   0  0  0  1  0  1  0  0  0  0  0  0
   90.4802   96.9271  -46.2421 H   0  0  0  1  0  1  0  0  0  0  0  0
   88.8619   97.3812  -45.6079 H   0  0  0  1  0  1  0  0  0  0  0  0
   92.9071  102.5061  -44.7490 H   0  0  0  1  0  1  0  0  0  0  0  0
   88.6097   99.2655  -44.2070 H   0  0  0  1  0  1  0  0  0  0  0  0
   89.3242   99.8170  -45.7598 H   0  0  0  1  0  1  0  0  0  0  0  0
   90.1107   94.5617  -46.0309 H   0  0  0  1  0  1  0  0  0  0  0  0
   91.1074   89.3246  -45.3851 H   0  0  0  1  0  1  0  0  0  0  0  0
   89.3193   89.2729  -45.5422 H   0  0  0  1  0  1  0  0  0  0  0  0
   92.3260   91.1565  -46.0917 H   0  0  0  1  0  1  0  0  0  0  0  0
   90.4412  100.4594  -42.9733 H   0  0  0  1  0  1  0  0  0  0  0  0
   89.4803  101.5835  -43.9926 H   0  0  0  1  0  1  0  0  0  0  0  0
   94.2151   92.2938  -47.2040 H   0  0  0  1  0  1  0  0  0  0  0  0
   91.1612  101.2321  -45.8580 H   0  0  0  1  0  1  0  0  0  0  0  0
   92.8353  104.9730  -44.5663 H   0  0  0  1  0  1  0  0  0  0  0  0
   92.0487  104.8104  -42.9604 H   0  0  0  1  0  1  0  0  0  0  0  0
   91.2394  105.7423  -44.2670 H   0  0  0  1  0  1  0  0  0  0  0  0
   91.5363  102.0982  -42.1717 H   0  0  0  1  0  1  0  0  0  0  0  0
   92.8405  103.2974  -42.4717 H   0  0  0  1  0  1  0  0  0  0  0  0
   93.7433  101.2161  -41.4765 H   0  0  0  1  0  1  0  0  0  0  0  0
   94.3684  101.4647  -43.1417 H   0  0  0  1  0  1  0  0  0  0  0  0
   93.0649  100.2659  -42.8416 H   0  0  0  1  0  1  0  0  0  0  0  0
   92.6877   99.7454  -43.6392 H   0  0  0  1  0  1  0  0  0  0  0  0
   93.3719  100.2075  -45.2346 H   0  0  0  1  0  1  0  0  0  0  0  0
   91.6686   98.8909  -46.3956 H   0  0  0  1  0  1  0  0  0  0  0  0
   92.5007   97.8517  -45.1886 H   0  0  0  1  0  1  0  0  0  0  0  0
   94.3881   92.2980  -49.6756 H   0  0  0  1  0  1  0  0  0  0  0  0
   92.6369   91.1683  -51.0272 H   0  0  0  1  0  1  0  0  0  0  0  0
   90.2201  103.4977  -43.9789 H   0  0  0  1  0  1  0  0  0  0  0  0
   90.9826  103.6773  -45.5958 H   0  0  0  1  0  1  0  0  0  0  0  0
  1 14  1  0  0  0  0
  1 15  1  0  0  0  0
  1 32  1  0  0  0  0
  2  8  1  0  0  0  0
  2  9  1  0  0  0  0
  2 25  1  0  0  0  0
  2 33  1  0  0  0  0
  3 20  1  0  0  0  0
  3 22  1  0  0  0  0
  3 28  1  0  0  0  0
  3 38  1  0  0  0  0
  4 15  2  0  0  0  0
  4 27  1  0  0  0  0
  4 31  1  0  0  0  0
  5  7  2  0  0  0  0
  5 10  1  0  0  0  0
  5 11  1  0  0  0  0
  6  8  1  0  0  0  0
  6 10  2  0  0  0  0
  6 16  1  0  0  0  0
  7 12  1  0  0  0  0
  7 35  1  0  0  0  0
  8 36  1  0  0  0  0
  8 37  1  0  0  0  0
  9 18  1  0  0  0  0
  9 39  1  0  0  0  0
  9 40  1  0  0  0  0
 10 41  1  0  0  0  0
 11 13  3  0  0  0  0
 12 16  2  0  0  0  0
 12 30  1  0  0  0  0
 13 14  1  0  0  0  0
 14 42  1  0  0  0  0
 14 43  1  0  0  0  0
 15 17  1  0  0  0  0
 16 29  1  0  0  0  0
 17 19  2  0  0  0  0
 17 44  1  0  0  0  0
 18 20  1  0  0  0  0
 18 45  1  0  0  0  0
 18 46  1  0  0  0  0
 19 26  1  0  0  0  0
 19 47  1  0  0  0  0
 20 24  1  0  0  0  0
 20 48  1  0  0  0  0
 21 28  1  0  0  0  0
 21 49  1  0  0  0  0
 21 50  1  0  0  0  0
 21 51  1  0  0  0  0
 22 23  1  0  0  0  0
 22 52  1  0  0  0  0
 22 53  1  0  0  0  0
 23 54  1  0  0  0  0
 23 55  1  0  0  0  0
 23 56  1  0  0  0  0
 24 25  1  0  0  0  0
 24 57  1  0  0  0  0
 24 58  1  0  0  0  0
 25 59  1  0  0  0  0
 25 60  1  0  0  0  0
 26 27  2  0  0  0  0
 26 61  1  0  0  0  0
 27 62  1  0  0  0  0
 28 63  1  0  0  0  0
 28 64  1  0  0  0  0
 29 34  1  0  0  0  0
M  END
> <ConfScore>
-0.439132 

$$$$
4agq


 64 66  0  0  0  0  0  0  0  0999 V2000
  124.3116   99.8578  -49.1085 N   0  0  0  1  0  3  0  0  0  0  0  0
  123.9580  107.6030  -44.7890 N   0  3  0  1  0  4  0  0  0  0  0  0
  125.4500  111.6190  -44.1530 N   0  3  0  1  0  4  0  0  0  0  0  0
  123.8870   99.2578  -51.4518 C   0  0  0  1  0  3  0  0  0  0  0  0
  124.4171  102.7407  -45.2189 C   0  0  0  1  0  3  0  0  0  0  0  0
  123.8758  105.0884  -44.9066 C   0  0  0  1  0  3  0  0  0  0  0  0
  124.7737  102.6427  -43.8668 C   0  0  0  1  0  3  0  0  0  0  0  0
  123.3850  106.3880  -45.4850 C   0  0  0  1  0  4  0  0  0  0  0  0
  122.9790  108.7410  -44.8490 C   0  0  0  1  0  4  0  0  0  0  0  0
  123.9807  103.9652  -45.7380 C   0  0  0  1  0  3  0  0  0  0  0  0
  124.5324  101.6160  -46.0915 C   0  0  0  1  0  2  0  0  0  0  0  0
  124.6808  103.7617  -43.0274 C   0  0  0  1  0  3  0  0  0  0  0  0
  124.6103  100.7014  -46.8665 C   0  0  0  1  0  2  0  0  0  0  0  0
  124.7289   99.5442  -47.7648 C   0  0  0  1  0  4  0  0  0  0  0  0
  124.3503   98.9619  -50.1666 C   0  0  0  1  0  3  0  0  0  0  0  0
  124.2269  104.9746  -43.5530 C   0  0  0  1  0  3  0  0  0  0  0  0
  124.8755   97.6795  -49.9525 C   0  0  0  1  0  3  0  0  0  0  0  0
  123.5670  109.9230  -44.0960 C   0  0  0  1  0  4  0  0  0  0  0  0
  124.9384   96.7342  -50.9824 C   0  0  0  1  0  3  0  0  0  0  0  0
  124.9010  110.3060  -44.7320 C   0  0  0  1  0  4  0  0  0  0  0  0
  125.1637  114.1076  -43.9526 C   0  0  0  1  0  4  0  0  0  0  0  0
  125.8040  111.5799  -42.6789 C   0  0  0  1  0  4  0  0  0  0  0  0
  126.3345  112.9316  -42.2334 C   0  0  0  1  0  4  0  0  0  0  0  0
  125.9010  109.1490  -44.6010 C   0  0  0  1  0  4  0  0  0  0  0  0
  125.3410  107.9150  -45.2920 C   0  0  0  1  0  4  0  0  0  0  0  0
  124.4724   97.0534  -52.2527 C   0  0  0  1  0  3  0  0  0  0  0  0
  123.9490   98.3230  -52.4904 C   0  0  0  1  0  3  0  0  0  0  0  0
  124.5315  112.8147  -44.4413 C   0  0  0  1  0  4  0  0  0  0  0  0
  124.1354  106.0944  -42.7567 O   0  0  0  1  0  2  0  0  0  0  0  0
  125.1863  103.6386  -40.9644 I   0  0  0  1  0  1  0  0  0  0  0  0
  123.4675  100.2383  -51.6491 H   0  0  0  1  0  1  0  0  0  0  0  0
  123.9630  100.8085  -49.2951 H   0  0  0  1  0  1  0  0  0  0  0  0
  124.0600  107.3680  -43.8140 H   0  0  0  1  0  1  0  0  0  0  0  0
  124.4017  105.8743  -41.8711 H   0  0  0  1  0  1  0  0  0  0  0  0
  125.1233  101.6978  -43.4680 H   0  0  0  1  0  1  0  0  0  0  0  0
  122.2887  106.4181  -45.3960 H   0  0  0  1  0  1  0  0  0  0  0  0
  123.6677  106.4274  -46.5468 H   0  0  0  1  0  1  0  0  0  0  0  0
  126.3137  111.7932  -44.6434 H   0  0  0  1  0  1  0  0  0  0  0  0
  122.0300  108.4400  -44.3820 H   0  0  0  1  0  1  0  0  0  0  0  0
  122.8000  109.0220  -45.8970 H   0  0  0  1  0  1  0  0  0  0  0  0
  123.7228  104.0454  -46.7880 H   0  0  0  1  0  1  0  0  0  0  0  0
  125.7797   99.2176  -47.7862 H   0  0  0  1  0  1  0  0  0  0  0  0
  124.1004   98.7286  -47.3792 H   0  0  0  1  0  1  0  0  0  0  0  0
  125.2414   97.4155  -48.9669 H   0  0  0  1  0  1  0  0  0  0  0  0
  123.7270  109.6460  -43.0440 H   0  0  0  1  0  1  0  0  0  0  0  0
  122.8750  110.7760  -44.1500 H   0  0  0  1  0  1  0  0  0  0  0  0
  125.3507   95.7513  -50.7884 H   0  0  0  1  0  1  0  0  0  0  0  0
  124.7240  110.4720  -45.8050 H   0  0  0  1  0  1  0  0  0  0  0  0
  126.1318  114.2539  -44.4536 H   0  0  0  1  0  1  0  0  0  0  0  0
  125.3200  114.0505  -42.8649 H   0  0  0  1  0  1  0  0  0  0  0  0
  124.4983  114.9524  -44.1848 H   0  0  0  1  0  1  0  0  0  0  0  0
  126.5745  110.8133  -42.5097 H   0  0  0  1  0  1  0  0  0  0  0  0
  124.9045  111.3313  -42.0951 H   0  0  0  1  0  1  0  0  0  0  0  0
  126.5881  112.8921  -41.1642 H   0  0  0  1  0  1  0  0  0  0  0  0
  125.5660  113.7002  -42.4002 H   0  0  0  1  0  1  0  0  0  0  0  0
  127.2354  113.1825  -42.8144 H   0  0  0  1  0  1  0  0  0  0  0  0
  126.0690  108.9290  -43.5370 H   0  0  0  1  0  1  0  0  0  0  0  0
  126.8540  109.4330  -45.0720 H   0  0  0  1  0  1  0  0  0  0  0  0
  125.2990  108.0960  -46.3760 H   0  0  0  1  0  1  0  0  0  0  0  0
  126.0010  107.0580  -45.0890 H   0  0  0  1  0  1  0  0  0  0  0  0
  124.5171   96.3216  -53.0509 H   0  0  0  1  0  1  0  0  0  0  0  0
  123.5900   98.5860  -53.4791 H   0  0  0  1  0  1  0  0  0  0  0  0
  123.5712  112.6647  -43.9257 H   0  0  0  1  0  1  0  0  0  0  0  0
  124.3583  112.8841  -45.5258 H   0  0  0  1  0  1  0  0  0  0  0  0
  1 14  1  0  0  0  0
  1 15  1  0  0  0  0
  1 32  1  0  0  0  0
  2  8  1  0  0  0  0
  2  9  1  0  0  0  0
  2 25  1  0  0  0  0
  2 33  1  0  0  0  0
  3 20  1  0  0  0  0
  3 22  1  0  0  0  0
  3 28  1  0  0  0  0
  3 38  1  0  0  0  0
  4 15  2  0  0  0  0
  4 27  1  0  0  0  0
  4 31  1  0  0  0  0
  5  7  2  0  0  0  0
  5 10  1  0  0  0  0
  5 11  1  0  0  0  0
  6  8  1  0  0  0  0
  6 10  2  0  0  0  0
  6 16  1  0  0  0  0
  7 12  1  0  0  0  0
  7 35  1  0  0  0  0
  8 36  1  0  0  0  0
  8 37  1  0  0  0  0
  9 18  1  0  0  0  0
  9 39  1  0  0  0  0
  9 40  1  0  0  0  0
 10 41  1  0  0  0  0
 11 13  3  0  0  0  0
 12 16  2  0  0  0  0
 12 30  1  0  0  0  0
 13 14  1  0  0  0  0
 14 42  1  0  0  0  0
 14 43  1  0  0  0  0
 15 17  1  0  0  0  0
 16 29  1  0  0  0  0
 17 19  2  0  0  0  0
 17 44  1  0  0  0  0
 18 20  1  0  0  0  0
 18 45  1  0  0  0  0
 18 46  1  0  0  0  0
 19 26  1  0  0  0  0
 19 47  1  0  0  0  0
 20 24  1  0  0  0  0
 20 48  1  0  0  0  0
 21 28  1  0  0  0  0
 21 49  1  0  0  0  0
 21 50  1  0  0  0  0
 21 51  1  0  0  0  0
 22 23  1  0  0  0  0
 22 52  1  0  0  0  0
 22 53  1  0  0  0  0
 23 54  1  0  0  0  0
 23 55  1  0  0  0  0
 23 56  1  0  0  0  0
 24 25  1  0  0  0  0
 24 57  1  0  0  0  0
 24 58  1  0  0  0  0
 25 59  1  0  0  0  0
 25 60  1  0  0  0  0
 26 27  2  0  0  0  0
 26 61  1  0  0  0  0
 27 62  1  0  0  0  0
 28 63  1  0  0  0  0
 28 64  1  0  0  0  0
 29 34  1  0  0  0  0
M  END
> <ConfScore>
-0.438414 

$$$$
4agq


 64 66  0  0  0  0  0  0  0  0999 V2000
  126.7277  102.5361  -51.0186 N   0  0  0  1  0  3  0  0  0  0  0  0
  123.9580  107.6030  -44.7890 N   0  3  0  1  0  4  0  0  0  0  0  0
  125.4500  111.6190  -44.1530 N   0  3  0  1  0  4  0  0  0  0  0  0
  126.6129  104.5543  -52.4133 C   0  0  0  1  0  3  0  0  0  0  0  0
  125.5807  103.4243  -46.3984 C   0  0  0  1  0  3  0  0  0  0  0  0
  124.2503  105.1645  -45.3478 C   0  0  0  1  0  3  0  0  0  0  0  0
  125.8577  102.8751  -45.1388 C   0  0  0  1  0  3  0  0  0  0  0  0
  123.3850  106.3880  -45.4850 C   0  0  0  1  0  4  0  0  0  0  0  0
  122.9790  108.7410  -44.8490 C   0  0  0  1  0  4  0  0  0  0  0  0
  124.7882  104.5736  -46.4991 C   0  0  0  1  0  3  0  0  0  0  0  0
  126.1316  102.8523  -47.5854 C   0  0  0  1  0  2  0  0  0  0  0  0
  125.3319  103.4625  -43.9794 C   0  0  0  1  0  3  0  0  0  0  0  0
  126.5691  102.4101  -48.6132 C   0  0  0  1  0  2  0  0  0  0  0  0
  127.1358  101.8218  -49.8349 C   0  0  0  1  0  4  0  0  0  0  0  0
  126.9962  103.8767  -51.2524 C   0  0  0  1  0  3  0  0  0  0  0  0
  124.5274  104.5995  -44.0938 C   0  0  0  1  0  3  0  0  0  0  0  0
  127.6958  104.6089  -50.2825 C   0  0  0  1  0  3  0  0  0  0  0  0
  123.5670  109.9230  -44.0960 C   0  0  0  1  0  4  0  0  0  0  0  0
  127.9955  105.9635  -50.4649 C   0  0  0  1  0  3  0  0  0  0  0  0
  124.9010  110.3060  -44.7320 C   0  0  0  1  0  4  0  0  0  0  0  0
  124.9131  113.8949  -43.2325 C   0  0  0  1  0  4  0  0  0  0  0  0
  126.4840  111.4614  -43.0549 C   0  0  0  1  0  4  0  0  0  0  0  0
  127.6497  110.6242  -43.5519 C   0  0  0  1  0  4  0  0  0  0  0  0
  125.9010  109.1490  -44.6010 C   0  0  0  1  0  4  0  0  0  0  0  0
  125.3410  107.9150  -45.2920 C   0  0  0  1  0  4  0  0  0  0  0  0
  127.6019  106.6155  -51.6280 C   0  0  0  1  0  3  0  0  0  0  0  0
  126.9025  105.9091  -52.6049 C   0  0  0  1  0  3  0  0  0  0  0  0
  124.3340  112.5667  -43.6918 C   0  0  0  1  0  4  0  0  0  0  0  0
  124.0057  105.2060  -42.9729 O   0  0  0  1  0  2  0  0  0  0  0  0
  125.7095  102.6364  -42.0555 I   0  0  0  1  0  1  0  0  0  0  0  0
  126.0770  104.0150  -53.1869 H   0  0  0  1  0  1  0  0  0  0  0  0
  126.2024  102.0180  -51.7368 H   0  0  0  1  0  1  0  0  0  0  0  0
  124.0600  107.3680  -43.8140 H   0  0  0  1  0  1  0  0  0  0  0  0
  124.2710  104.7211  -42.1996 H   0  0  0  1  0  1  0  0  0  0  0  0
  126.4814  101.9927  -45.0602 H   0  0  0  1  0  1  0  0  0  0  0  0
  122.3982  106.1686  -45.0505 H   0  0  0  1  0  1  0  0  0  0  0  0
  123.2717  106.6183  -46.5541 H   0  0  0  1  0  1  0  0  0  0  0  0
  125.9215  112.0780  -44.9172 H   0  0  0  1  0  1  0  0  0  0  0  0
  122.0300  108.4400  -44.3820 H   0  0  0  1  0  1  0  0  0  0  0  0
  122.8000  109.0220  -45.8970 H   0  0  0  1  0  1  0  0  0  0  0  0
  124.5894  105.0090  -47.4718 H   0  0  0  1  0  1  0  0  0  0  0  0
  128.2339  101.8479  -49.7651 H   0  0  0  1  0  1  0  0  0  0  0  0
  126.7994  100.7782  -49.9165 H   0  0  0  1  0  1  0  0  0  0  0  0
  128.0104  104.1138  -49.3710 H   0  0  0  1  0  1  0  0  0  0  0  0
  123.7270  109.6460  -43.0440 H   0  0  0  1  0  1  0  0  0  0  0  0
  122.8750  110.7760  -44.1500 H   0  0  0  1  0  1  0  0  0  0  0  0
  128.5363  106.5047  -49.6978 H   0  0  0  1  0  1  0  0  0  0  0  0
  124.7240  110.4720  -45.8050 H   0  0  0  1  0  1  0  0  0  0  0  0
  125.4730  114.3555  -44.0594 H   0  0  0  1  0  1  0  0  0  0  0  0
  125.5906  113.7246  -42.3824 H   0  0  0  1  0  1  0  0  0  0  0  0
  124.0964  114.5643  -42.9237 H   0  0  0  1  0  1  0  0  0  0  0  0
  126.0226  110.9642  -42.1890 H   0  0  0  1  0  1  0  0  0  0  0  0
  126.8509  112.4550  -42.7551 H   0  0  0  1  0  1  0  0  0  0  0  0
  128.3928  110.5160  -42.7486 H   0  0  0  1  0  1  0  0  0  0  0  0
  128.1142  111.1191  -44.4171 H   0  0  0  1  0  1  0  0  0  0  0  0
  127.2864  109.6289  -43.8510 H   0  0  0  1  0  1  0  0  0  0  0  0
  126.0690  108.9290  -43.5370 H   0  0  0  1  0  1  0  0  0  0  0  0
  126.8540  109.4330  -45.0720 H   0  0  0  1  0  1  0  0  0  0  0  0
  125.2990  108.0960  -46.3760 H   0  0  0  1  0  1  0  0  0  0  0  0
  126.0010  107.0580  -45.0890 H   0  0  0  1  0  1  0  0  0  0  0  0
  127.8361  107.6637  -51.7727 H   0  0  0  1  0  1  0  0  0  0  0  0
  126.5834  106.4091  -53.5125 H   0  0  0  1  0  1  0  0  0  0  0  0
  123.7884  112.1024  -42.8567 H   0  0  0  1  0  1  0  0  0  0  0  0
  123.6416  112.7439  -44.5285 H   0  0  0  1  0  1  0  0  0  0  0  0
  1 14  1  0  0  0  0
  1 15  1  0  0  0  0
  1 32  1  0  0  0  0
  2  8  1  0  0  0  0
  2  9  1  0  0  0  0
  2 25  1  0  0  0  0
  2 33  1  0  0  0  0
  3 20  1  0  0  0  0
  3 22  1  0  0  0  0
  3 28  1  0  0  0  0
  3 38  1  0  0  0  0
  4 15  2  0  0  0  0
  4 27  1  0  0  0  0
  4 31  1  0  0  0  0
  5  7  2  0  0  0  0
  5 10  1  0  0  0  0
  5 11  1  0  0  0  0
  6  8  1  0  0  0  0
  6 10  2  0  0  0  0
  6 16  1  0  0  0  0
  7 12  1  0  0  0  0
  7 35  1  0  0  0  0
  8 36  1  0  0  0  0
  8 37  1  0  0  0  0
  9 18  1  0  0  0  0
  9 39  1  0  0  0  0
  9 40  1  0  0  0  0
 10 41  1  0  0  0  0
 11 13  3  0  0  0  0
 12 16  2  0  0  0  0
 12 30  1  0  0  0  0
 13 14  1  0  0  0  0
 14 42  1  0  0  0  0
 14 43  1  0  0  0  0
 15 17  1  0  0  0  0
 16 29  1  0  0  0  0
 17 19  2  0  0  0  0
 17 44  1  0  0  0  0
 18 20  1  0  0  0  0
 18 45  1  0  0  0  0
 18 46  1  0  0  0  0
 19 26  1  0  0  0  0
 19 47  1  0  0  0  0
 20 24  1  0  0  0  0
 20 48  1  0  0  0  0
 21 28  1  0  0  0  0
 21 49  1  0  0  0  0
 21 50  1  0  0  0  0
 21 51  1  0  0  0  0
 22 23  1  0  0  0  0
 22 52  1  0  0  0  0
 22 53  1  0  0  0  0
 23 54  1  0  0  0  0
 23 55  1  0  0  0  0
 23 56  1  0  0  0  0
 24 25  1  0  0  0  0
 24 57  1  0  0  0  0
 24 58  1  0  0  0  0
 25 59  1  0  0  0  0
 25 60  1  0  0  0  0
 26 27  2  0  0  0  0
 26 61  1  0  0  0  0
 27 62  1  0  0  0  0
 28 63  1  0  0  0  0
 28 64  1  0  0  0  0
 29 34  1  0  0  0  0
M  END
> <ConfScore>
-0.431561 

$$$$
4agq


 64 66  0  0  0  0  0  0  0  0999 V2000
  123.4395  100.9857  -40.2463 N   0  0  0  1  0  3  0  0  0  0  0  0
  123.9580  107.6030  -44.7890 N   0  3  0  1  0  4  0  0  0  0  0  0
  125.4500  111.6190  -44.1530 N   0  3  0  1  0  4  0  0  0  0  0  0
  122.3921  101.0844  -38.0271 C   0  0  0  1  0  3  0  0  0  0  0  0
  125.0042  103.1704  -44.2749 C   0  0  0  1  0  3  0  0  0  0  0  0
  124.2920  105.1887  -45.4244 C   0  0  0  1  0  3  0  0  0  0  0  0
  125.9706  102.9469  -45.2654 C   0  0  0  1  0  3  0  0  0  0  0  0
  123.3850  106.3880  -45.4850 C   0  0  0  1  0  4  0  0  0  0  0  0
  122.9790  108.7410  -44.8490 C   0  0  0  1  0  4  0  0  0  0  0  0
  124.1598  104.2833  -44.3629 C   0  0  0  1  0  3  0  0  0  0  0  0
  124.8367  102.2533  -43.1930 C   0  0  0  1  0  2  0  0  0  0  0  0
  126.1064  103.8414  -46.3364 C   0  0  0  1  0  3  0  0  0  0  0  0
  124.6556  101.5141  -42.2635 C   0  0  0  1  0  2  0  0  0  0  0  0
  124.4830  100.5705  -41.1500 C   0  0  0  1  0  4  0  0  0  0  0  0
  123.3988  100.6593  -38.8989 C   0  0  0  1  0  3  0  0  0  0  0  0
  125.2695  104.9586  -46.4042 C   0  0  0  1  0  3  0  0  0  0  0  0
  124.4201   99.8630  -38.3613 C   0  0  0  1  0  3  0  0  0  0  0  0
  123.5670  109.9230  -44.0960 C   0  0  0  1  0  4  0  0  0  0  0  0
  124.4313   99.5035  -37.0090 C   0  0  0  1  0  3  0  0  0  0  0  0
  124.9010  110.3060  -44.7320 C   0  0  0  1  0  4  0  0  0  0  0  0
  125.1637  114.1076  -43.9526 C   0  0  0  1  0  4  0  0  0  0  0  0
  125.8040  111.5799  -42.6789 C   0  0  0  1  0  4  0  0  0  0  0  0
  126.8886  110.5464  -42.4297 C   0  0  0  1  0  4  0  0  0  0  0  0
  125.9010  109.1490  -44.6010 C   0  0  0  1  0  4  0  0  0  0  0  0
  125.3410  107.9150  -45.2920 C   0  0  0  1  0  4  0  0  0  0  0  0
  123.4176   99.9377  -36.1624 C   0  0  0  1  0  3  0  0  0  0  0  0
  122.3900  100.7276  -36.6747 C   0  0  0  1  0  3  0  0  0  0  0  0
  124.5315  112.8147  -44.4413 C   0  0  0  1  0  4  0  0  0  0  0  0
  125.3708  105.8493  -47.4496 O   0  0  0  1  0  2  0  0  0  0  0  0
  127.5826  103.5465  -47.8399 I   0  0  0  1  0  1  0  0  0  0  0  0
  121.5914  101.7082  -38.4093 H   0  0  0  1  0  1  0  0  0  0  0  0
  122.6745  101.5612  -40.6256 H   0  0  0  1  0  1  0  0  0  0  0  0
  124.0600  107.3680  -43.8140 H   0  0  0  1  0  1  0  0  0  0  0  0
  126.0684  105.5728  -48.0330 H   0  0  0  1  0  1  0  0  0  0  0  0
  126.6158  102.0787  -45.2037 H   0  0  0  1  0  1  0  0  0  0  0  0
  122.4294  106.1280  -45.0054 H   0  0  0  1  0  1  0  0  0  0  0  0
  123.2086  106.6403  -46.5405 H   0  0  0  1  0  1  0  0  0  0  0  0
  126.3137  111.7932  -44.6434 H   0  0  0  1  0  1  0  0  0  0  0  0
  122.0300  108.4400  -44.3820 H   0  0  0  1  0  1  0  0  0  0  0  0
  122.8000  109.0220  -45.8970 H   0  0  0  1  0  1  0  0  0  0  0  0
  123.4001  104.4459  -43.6068 H   0  0  0  1  0  1  0  0  0  0  0  0
  124.2258   99.5817  -41.5593 H   0  0  0  1  0  1  0  0  0  0  0  0
  125.4282  100.5009  -40.5928 H   0  0  0  1  0  1  0  0  0  0  0  0
  125.2180   99.5179  -39.0087 H   0  0  0  1  0  1  0  0  0  0  0  0
  123.7270  109.6460  -43.0440 H   0  0  0  1  0  1  0  0  0  0  0  0
  122.8750  110.7760  -44.1500 H   0  0  0  1  0  1  0  0  0  0  0  0
  125.2325   98.8858  -36.6213 H   0  0  0  1  0  1  0  0  0  0  0  0
  124.7240  110.4720  -45.8050 H   0  0  0  1  0  1  0  0  0  0  0  0
  126.1318  114.2539  -44.4536 H   0  0  0  1  0  1  0  0  0  0  0  0
  125.3200  114.0505  -42.8649 H   0  0  0  1  0  1  0  0  0  0  0  0
  124.4983  114.9524  -44.1848 H   0  0  0  1  0  1  0  0  0  0  0  0
  124.9091  111.3153  -42.0965 H   0  0  0  1  0  1  0  0  0  0  0  0
  126.1662  112.5709  -42.3652 H   0  0  0  1  0  1  0  0  0  0  0  0
  127.1373  110.5261  -41.3587 H   0  0  0  1  0  1  0  0  0  0  0  0
  127.7853  110.8087  -43.0097 H   0  0  0  1  0  1  0  0  0  0  0  0
  126.5288  109.5535  -42.7409 H   0  0  0  1  0  1  0  0  0  0  0  0
  126.0690  108.9290  -43.5370 H   0  0  0  1  0  1  0  0  0  0  0  0
  126.8540  109.4330  -45.0720 H   0  0  0  1  0  1  0  0  0  0  0  0
  125.2990  108.0960  -46.3760 H   0  0  0  1  0  1  0  0  0  0  0  0
  126.0010  107.0580  -45.0890 H   0  0  0  1  0  1  0  0  0  0  0  0
  123.4262   99.6633  -35.1139 H   0  0  0  1  0  1  0  0  0  0  0  0
  121.5898  101.0655  -36.0258 H   0  0  0  1  0  1  0  0  0  0  0  0
  123.5712  112.6647  -43.9257 H   0  0  0  1  0  1  0  0  0  0  0  0
  124.3583  112.8841  -45.5258 H   0  0  0  1  0  1  0  0  0  0  0  0
  1 14  1  0  0  0  0
  1 15  1  0  0  0  0
  1 32  1  0  0  0  0
  2  8  1  0  0  0  0
  2  9  1  0  0  0  0
  2 25  1  0  0  0  0
  2 33  1  0  0  0  0
  3 20  1  0  0  0  0
  3 22  1  0  0  0  0
  3 28  1  0  0  0  0
  3 38  1  0  0  0  0
  4 15  2  0  0  0  0
  4 27  1  0  0  0  0
  4 31  1  0  0  0  0
  5  7  2  0  0  0  0
  5 10  1  0  0  0  0
  5 11  1  0  0  0  0
  6  8  1  0  0  0  0
  6 10  2  0  0  0  0
  6 16  1  0  0  0  0
  7 12  1  0  0  0  0
  7 35  1  0  0  0  0
  8 36  1  0  0  0  0
  8 37  1  0  0  0  0
  9 18  1  0  0  0  0
  9 39  1  0  0  0  0
  9 40  1  0  0  0  0
 10 41  1  0  0  0  0
 11 13  3  0  0  0  0
 12 16  2  0  0  0  0
 12 30  1  0  0  0  0
 13 14  1  0  0  0  0
 14 42  1  0  0  0  0
 14 43  1  0  0  0  0
 15 17  1  0  0  0  0
 16 29  1  0  0  0  0
 17 19  2  0  0  0  0
 17 44  1  0  0  0  0
 18 20  1  0  0  0  0
 18 45  1  0  0  0  0
 18 46  1  0  0  0  0
 19 26  1  0  0  0  0
 19 47  1  0  0  0  0
 20 24  1  0  0  0  0
 20 48  1  0  0  0  0
 21 28  1  0  0  0  0
 21 49  1  0  0  0  0
 21 50  1  0  0  0  0
 21 51  1  0  0  0  0
 22 23  1  0  0  0  0
 22 52  1  0  0  0  0
 22 53  1  0  0  0  0
 23 54  1  0  0  0  0
 23 55  1  0  0  0  0
 23 56  1  0  0  0  0
 24 25  1  0  0  0  0
 24 57  1  0  0  0  0
 24 58  1  0  0  0  0
 25 59  1  0  0  0  0
 25 60  1  0  0  0  0
 26 27  2  0  0  0  0
 26 61  1  0  0  0  0
 27 62  1  0  0  0  0
 28 63  1  0  0  0  0
 28 64  1  0  0  0  0
 29 34  1  0  0  0  0
M  END
> <ConfScore>
-0.430022 

$$$$
4agq


 64 66  0  0  0  0  0  0  0  0999 V2000
   90.3515   89.8779  -47.2388 N   0  0  0  1  0  3  0  0  0  0  0  0
   90.4980   98.3810  -44.6910 N   0  3  0  1  0  4  0  0  0  0  0  0
   92.0470  102.3711  -44.2402 N   0  3  0  1  0  4  0  0  0  0  0  0
   89.5438   90.4811  -49.4782 C   0  0  0  1  0  3  0  0  0  0  0  0
   89.9732   93.5645  -44.1216 C   0  0  0  1  0  3  0  0  0  0  0  0
   89.9319   95.9782  -44.4153 C   0  0  0  1  0  3  0  0  0  0  0  0
   89.8474   93.7101  -42.7340 C   0  0  0  1  0  3  0  0  0  0  0  0
   89.9050   97.1660  -45.3350 C   0  0  0  1  0  4  0  0  0  0  0  0
   89.5430   99.5450  -44.7170 C   0  0  0  1  0  4  0  0  0  0  0  0
   90.0145   94.6899  -44.9587 C   0  0  0  1  0  3  0  0  0  0  0  0
   90.0603   92.2572  -44.6900 C   0  0  0  1  0  2  0  0  0  0  0  0
   89.7694   95.0102  -42.2084 C   0  0  0  1  0  3  0  0  0  0  0  0
   90.1373   91.1808  -45.2180 C   0  0  0  1  0  2  0  0  0  0  0  0
   90.2269   89.8357  -45.8033 C   0  0  0  1  0  4  0  0  0  0  0  0
   89.4031   90.4277  -48.0885 C   0  0  0  1  0  3  0  0  0  0  0  0
   89.8042   96.1642  -43.0135 C   0  0  0  1  0  3  0  0  0  0  0  0
   88.2325   90.9708  -47.5399 C   0  0  0  1  0  3  0  0  0  0  0  0
   90.1750  100.7310  -44.0050 C   0  0  0  1  0  4  0  0  0  0  0  0
   87.2422   91.5396  -48.3484 C   0  0  0  1  0  3  0  0  0  0  0  0
   91.4300  101.0810  -44.8020 C   0  0  0  1  0  4  0  0  0  0  0  0
   91.8725  104.8705  -44.0449 C   0  0  0  1  0  4  0  0  0  0  0  0
   92.4295  102.3219  -42.7736 C   0  0  0  1  0  4  0  0  0  0  0  0
   93.4735  101.2434  -42.5422 C   0  0  0  1  0  4  0  0  0  0  0  0
   92.4510   99.9400  -44.6950 C   0  0  0  1  0  4  0  0  0  0  0  0
   91.8210   98.7070  -45.3220 C   0  0  0  1  0  4  0  0  0  0  0  0
   87.4049   91.5793  -49.7286 C   0  0  0  1  0  3  0  0  0  0  0  0
   88.5587   91.0427  -50.2970 C   0  0  0  1  0  3  0  0  0  0  0  0
   91.1751  103.6043  -44.5148 C   0  0  0  1  0  4  0  0  0  0  0  0
   89.7179   97.4237  -42.4633 O   0  0  0  1  0  2  0  0  0  0  0  0
   89.5906   95.2457  -40.1014 I   0  0  0  1  0  1  0  0  0  0  0  0
   90.4410   90.0768  -49.9340 H   0  0  0  1  0  1  0  0  0  0  0  0
   91.1990   89.4731  -47.6608 H   0  0  0  1  0  1  0  0  0  0  0  0
   90.6653   98.1804  -43.7173 H   0  0  0  1  0  1  0  0  0  0  0  0
   89.9864   97.3890  -41.5522 H   0  0  0  1  0  1  0  0  0  0  0  0
   89.8113   92.8438  -42.0843 H   0  0  0  1  0  1  0  0  0  0  0  0
   90.4802   96.9271  -46.2421 H   0  0  0  1  0  1  0  0  0  0  0  0
   88.8619   97.3812  -45.6079 H   0  0  0  1  0  1  0  0  0  0  0  0
   92.9071  102.5061  -44.7490 H   0  0  0  1  0  1  0  0  0  0  0  0
   88.6097   99.2655  -44.2070 H   0  0  0  1  0  1  0  0  0  0  0  0
   89.3242   99.8170  -45.7598 H   0  0  0  1  0  1  0  0  0  0  0  0
   90.1107   94.5617  -46.0309 H   0  0  0  1  0  1  0  0  0  0  0  0
   91.1074   89.3246  -45.3851 H   0  0  0  1  0  1  0  0  0  0  0  0
   89.3193   89.2729  -45.5422 H   0  0  0  1  0  1  0  0  0  0  0  0
   88.0921   90.9483  -46.4653 H   0  0  0  1  0  1  0  0  0  0  0  0
   90.4412  100.4594  -42.9733 H   0  0  0  1  0  1  0  0  0  0  0  0
   89.4803  101.5835  -43.9926 H   0  0  0  1  0  1  0  0  0  0  0  0
   86.3471   91.9505  -47.8971 H   0  0  0  1  0  1  0  0  0  0  0  0
   91.1612  101.2321  -45.8580 H   0  0  0  1  0  1  0  0  0  0  0  0
   92.8353  104.9730  -44.5663 H   0  0  0  1  0  1  0  0  0  0  0  0
   92.0487  104.8104  -42.9604 H   0  0  0  1  0  1  0  0  0  0  0  0
   91.2394  105.7423  -44.2670 H   0  0  0  1  0  1  0  0  0  0  0  0
   91.5363  102.0982  -42.1717 H   0  0  0  1  0  1  0  0  0  0  0  0
   92.8405  103.2974  -42.4717 H   0  0  0  1  0  1  0  0  0  0  0  0
   93.7433  101.2161  -41.4765 H   0  0  0  1  0  1  0  0  0  0  0  0
   94.3684  101.4647  -43.1417 H   0  0  0  1  0  1  0  0  0  0  0  0
   93.0649  100.2659  -42.8416 H   0  0  0  1  0  1  0  0  0  0  0  0
   92.6877   99.7454  -43.6392 H   0  0  0  1  0  1  0  0  0  0  0  0
   93.3719  100.2075  -45.2346 H   0  0  0  1  0  1  0  0  0  0  0  0
   91.6686   98.8909  -46.3956 H   0  0  0  1  0  1  0  0  0  0  0  0
   92.5007   97.8517  -45.1886 H   0  0  0  1  0  1  0  0  0  0  0  0
   86.6406   92.0225  -50.3563 H   0  0  0  1  0  1  0  0  0  0  0  0
   88.6929   91.0608  -51.3728 H   0  0  0  1  0  1  0  0  0  0  0  0
   90.2201  103.4977  -43.9789 H   0  0  0  1  0  1  0  0  0  0  0  0
   90.9826  103.6773  -45.5958 H   0  0  0  1  0  1  0  0  0  0  0  0
  1 14  1  0  0  0  0
  1 15  1  0  0  0  0
  1 32  1  0  0  0  0
  2  8  1  0  0  0  0
  2  9  1  0  0  0  0
  2 25  1  0  0  0  0
  2 33  1  0  0  0  0
  3 20  1  0  0  0  0
  3 22  1  0  0  0  0
  3 28  1  0  0  0  0
  3 38  1  0  0  0  0
  4 15  2  0  0  0  0
  4 27  1  0  0  0  0
  4 31  1  0  0  0  0
  5  7  2  0  0  0  0
  5 10  1  0  0  0  0
  5 11  1  0  0  0  0
  6  8  1  0  0  0  0
  6 10  2  0  0  0  0
  6 16  1  0  0  0  0
  7 12  1  0  0  0  0
  7 35  1  0  0  0  0
  8 36  1  0  0  0  0
  8 37  1  0  0  0  0
  9 18  1  0  0  0  0
  9 39  1  0  0  0  0
  9 40  1  0  0  0  0
 10 41  1  0  0  0  0
 11 13  3  0  0  0  0
 12 16  2  0  0  0  0
 12 30  1  0  0  0  0
 13 14  1  0  0  0  0
 14 42  1  0  0  0  0
 14 43  1  0  0  0  0
 15 17  1  0  0  0  0
 16 29  1  0  0  0  0
 17 19  2  0  0  0  0
 17 44  1  0  0  0  0
 18 20  1  0  0  0  0
 18 45  1  0  0  0  0
 18 46  1  0  0  0  0
 19 26  1  0  0  0  0
 19 47  1  0  0  0  0
 20 24  1  0  0  0  0
 20 48  1  0  0  0  0
 21 28  1  0  0  0  0
 21 49  1  0  0  0  0
 21 50  1  0  0  0  0
 21 51  1  0  0  0  0
 22 23  1  0  0  0  0
 22 52  1  0  0  0  0
 22 53  1  0  0  0  0
 23 54  1  0  0  0  0
 23 55  1  0  0  0  0
 23 56  1  0  0  0  0
 24 25  1  0  0  0  0
 24 57  1  0  0  0  0
 24 58  1  0  0  0  0
 25 59  1  0  0  0  0
 25 60  1  0  0  0  0
 26 27  2  0  0  0  0
 26 61  1  0  0  0  0
 27 62  1  0  0  0  0
 28 63  1  0  0  0  0
 28 64  1  0  0  0  0
 29 34  1  0  0  0  0
M  END
> <ConfScore>
-0.429494 

$$$$
4agq


 64 66  0  0  0  0  0  0  0  0999 V2000
   90.3515   89.8779  -47.2388 N   0  0  0  1  0  3  0  0  0  0  0  0
   90.4980   98.3810  -44.6910 N   0  3  0  1  0  4  0  0  0  0  0  0
   92.0470  102.3711  -44.2402 N   0  3  0  1  0  4  0  0  0  0  0  0
   89.5438   90.4811  -49.4782 C   0  0  0  1  0  3  0  0  0  0  0  0
   89.9732   93.5645  -44.1216 C   0  0  0  1  0  3  0  0  0  0  0  0
   89.9319   95.9782  -44.4153 C   0  0  0  1  0  3  0  0  0  0  0  0
   89.8474   93.7101  -42.7340 C   0  0  0  1  0  3  0  0  0  0  0  0
   89.9050   97.1660  -45.3350 C   0  0  0  1  0  4  0  0  0  0  0  0
   89.5430   99.5450  -44.7170 C   0  0  0  1  0  4  0  0  0  0  0  0
   90.0145   94.6899  -44.9587 C   0  0  0  1  0  3  0  0  0  0  0  0
   90.0603   92.2572  -44.6900 C   0  0  0  1  0  2  0  0  0  0  0  0
   89.7694   95.0102  -42.2084 C   0  0  0  1  0  3  0  0  0  0  0  0
   90.1373   91.1808  -45.2180 C   0  0  0  1  0  2  0  0  0  0  0  0
   90.2269   89.8357  -45.8033 C   0  0  0  1  0  4  0  0  0  0  0  0
   89.4031   90.4277  -48.0885 C   0  0  0  1  0  3  0  0  0  0  0  0
   89.8042   96.1642  -43.0135 C   0  0  0  1  0  3  0  0  0  0  0  0
   88.2325   90.9708  -47.5399 C   0  0  0  1  0  3  0  0  0  0  0  0
   90.1750  100.7310  -44.0050 C   0  0  0  1  0  4  0  0  0  0  0  0
   87.2422   91.5396  -48.3484 C   0  0  0  1  0  3  0  0  0  0  0  0
   91.4300  101.0810  -44.8020 C   0  0  0  1  0  4  0  0  0  0  0  0
   92.8850  103.5853  -42.2058 C   0  0  0  1  0  4  0  0  0  0  0  0
   93.2445  102.9032  -45.0035 C   0  0  0  1  0  4  0  0  0  0  0  0
   92.8475  103.2363  -46.4312 C   0  0  0  1  0  4  0  0  0  0  0  0
   92.4510   99.9400  -44.6950 C   0  0  0  1  0  4  0  0  0  0  0  0
   91.8210   98.7070  -45.3220 C   0  0  0  1  0  4  0  0  0  0  0  0
   87.4049   91.5793  -49.7286 C   0  0  0  1  0  3  0  0  0  0  0  0
   88.5587   91.0427  -50.2970 C   0  0  0  1  0  3  0  0  0  0  0  0
   92.3843  102.2562  -42.7471 C   0  0  0  1  0  4  0  0  0  0  0  0
   89.7179   97.4237  -42.4633 O   0  0  0  1  0  2  0  0  0  0  0  0
   89.5906   95.2457  -40.1014 I   0  0  0  1  0  1  0  0  0  0  0  0
   90.4410   90.0768  -49.9340 H   0  0  0  1  0  1  0  0  0  0  0  0
   91.1990   89.4731  -47.6608 H   0  0  0  1  0  1  0  0  0  0  0  0
   90.6653   98.1804  -43.7173 H   0  0  0  1  0  1  0  0  0  0  0  0
   89.9864   97.3890  -41.5522 H   0  0  0  1  0  1  0  0  0  0  0  0
   89.8113   92.8438  -42.0843 H   0  0  0  1  0  1  0  0  0  0  0  0
   90.4802   96.9271  -46.2421 H   0  0  0  1  0  1  0  0  0  0  0  0
   88.8619   97.3812  -45.6079 H   0  0  0  1  0  1  0  0  0  0  0  0
   91.3289  103.0745  -44.3209 H   0  0  0  1  0  1  0  0  0  0  0  0
   88.6097   99.2655  -44.2070 H   0  0  0  1  0  1  0  0  0  0  0  0
   89.3242   99.8170  -45.7598 H   0  0  0  1  0  1  0  0  0  0  0  0
   90.1107   94.5617  -46.0309 H   0  0  0  1  0  1  0  0  0  0  0  0
   91.1074   89.3246  -45.3851 H   0  0  0  1  0  1  0  0  0  0  0  0
   89.3193   89.2729  -45.5422 H   0  0  0  1  0  1  0  0  0  0  0  0
   88.0921   90.9483  -46.4653 H   0  0  0  1  0  1  0  0  0  0  0  0
   90.4412  100.4594  -42.9733 H   0  0  0  1  0  1  0  0  0  0  0  0
   89.4803  101.5835  -43.9926 H   0  0  0  1  0  1  0  0  0  0  0  0
   86.3471   91.9505  -47.8971 H   0  0  0  1  0  1  0  0  0  0  0  0
   91.1612  101.2321  -45.8580 H   0  0  0  1  0  1  0  0  0  0  0  0
   92.1134  104.3548  -42.3539 H   0  0  0  1  0  1  0  0  0  0  0  0
   93.8003  103.8776  -42.7421 H   0  0  0  1  0  1  0  0  0  0  0  0
   93.1036  103.4856  -41.1322 H   0  0  0  1  0  1  0  0  0  0  0  0
   94.0370  102.1405  -45.0152 H   0  0  0  1  0  1  0  0  0  0  0  0
   93.6175  103.8125  -44.5076 H   0  0  0  1  0  1  0  0  0  0  0  0
   93.7224  103.6207  -46.9753 H   0  0  0  1  0  1  0  0  0  0  0  0
   92.0560  103.9996  -46.4231 H   0  0  0  1  0  1  0  0  0  0  0  0
   92.4755  102.3284  -46.9307 H   0  0  0  1  0  1  0  0  0  0  0  0
   92.6877   99.7454  -43.6392 H   0  0  0  1  0  1  0  0  0  0  0  0
   93.3719  100.2075  -45.2346 H   0  0  0  1  0  1  0  0  0  0  0  0
   91.6686   98.8909  -46.3956 H   0  0  0  1  0  1  0  0  0  0  0  0
   92.5007   97.8517  -45.1886 H   0  0  0  1  0  1  0  0  0  0  0  0
   86.6406   92.0225  -50.3563 H   0  0  0  1  0  1  0  0  0  0  0  0
   88.6929   91.0608  -51.3728 H   0  0  0  1  0  1  0  0  0  0  0  0
   93.1656  101.4934  -42.6113 H   0  0  0  1  0  1  0  0  0  0  0  0
   91.4808  101.9578  -42.1944 H   0  0  0  1  0  1  0  0  0  0  0  0
  1 14  1  0  0  0  0
  1 15  1  0  0  0  0
  1 32  1  0  0  0  0
  2  8  1  0  0  0  0
  2  9  1  0  0  0  0
  2 25  1  0  0  0  0
  2 33  1  0  0  0  0
  3 20  1  0  0  0  0
  3 22  1  0  0  0  0
  3 28  1  0  0  0  0
  3 38  1  0  0  0  0
  4 15  2  0  0  0  0
  4 27  1  0  0  0  0
  4 31  1  0  0  0  0
  5  7  2  0  0  0  0
  5 10  1  0  0  0  0
  5 11  1  0  0  0  0
  6  8  1  0  0  0  0
  6 10  2  0  0  0  0
  6 16  1  0  0  0  0
  7 12  1  0  0  0  0
  7 35  1  0  0  0  0
  8 36  1  0  0  0  0
  8 37  1  0  0  0  0
  9 18  1  0  0  0  0
  9 39  1  0  0  0  0
  9 40  1  0  0  0  0
 10 41  1  0  0  0  0
 11 13  3  0  0  0  0
 12 16  2  0  0  0  0
 12 30  1  0  0  0  0
 13 14  1  0  0  0  0
 14 42  1  0  0  0  0
 14 43  1  0  0  0  0
 15 17  1  0  0  0  0
 16 29  1  0  0  0  0
 17 19  2  0  0  0  0
 17 44  1  0  0  0  0
 18 20  1  0  0  0  0
 18 45  1  0  0  0  0
 18 46  1  0  0  0  0
 19 26  1  0  0  0  0
 19 47  1  0  0  0  0
 20 24  1  0  0  0  0
 20 48  1  0  0  0  0
 21 28  1  0  0  0  0
 21 49  1  0  0  0  0
 21 50  1  0  0  0  0
 21 51  1  0  0  0  0
 22 23  1  0  0  0  0
 22 52  1  0  0  0  0
 22 53  1  0  0  0  0
 23 54  1  0  0  0  0
 23 55  1  0  0  0  0
 23 56  1  0  0  0  0
 24 25  1  0  0  0  0
 24 57  1  0  0  0  0
 24 58  1  0  0  0  0
 25 59  1  0  0  0  0
 25 60  1  0  0  0  0
 26 27  2  0  0  0  0
 26 61  1  0  0  0  0
 27 62  1  0  0  0  0
 28 63  1  0  0  0  0
 28 64  1  0  0  0  0
 29 34  1  0  0  0  0
M  END
> <ConfScore>
-0.428953 

$$$$
4agq


 64 66  0  0  0  0  0  0  0  0999 V2000
  129.7980  106.7339  -49.4075 N   0  0  0  1  0  3  0  0  0  0  0  0
  123.9580  107.6030  -44.7890 N   0  3  0  1  0  4  0  0  0  0  0  0
  125.4500  111.6190  -44.1530 N   0  3  0  1  0  4  0  0  0  0  0  0
  129.3231  104.4852  -48.5418 C   0  0  0  1  0  3  0  0  0  0  0  0
  124.9819  106.5716  -48.9282 C   0  0  0  1  0  3  0  0  0  0  0  0
  123.5344  106.4380  -46.9815 C   0  0  0  1  0  3  0  0  0  0  0  0
  123.8582  106.5461  -49.7658 C   0  0  0  1  0  3  0  0  0  0  0  0
  123.3850  106.3880  -45.4850 C   0  0  0  1  0  4  0  0  0  0  0  0
  122.9790  108.7410  -44.8490 C   0  0  0  1  0  4  0  0  0  0  0  0
  124.8182  106.5055  -47.5396 C   0  0  0  1  0  3  0  0  0  0  0  0
  126.3015  106.6214  -49.4720 C   0  0  0  1  0  2  0  0  0  0  0  0
  122.5695  106.4703  -49.2192 C   0  0  0  1  0  3  0  0  0  0  0  0
  127.4314  106.6633  -49.8780 C   0  0  0  1  0  2  0  0  0  0  0  0
  128.7895  106.7146  -50.4373 C   0  0  0  1  0  4  0  0  0  0  0  0
  130.0448  105.6823  -48.5374 C   0  0  0  1  0  3  0  0  0  0  0  0
  122.4177  106.4226  -47.8307 C   0  0  0  1  0  3  0  0  0  0  0  0
  131.0692  105.8114  -47.5886 C   0  0  0  1  0  3  0  0  0  0  0  0
  123.5670  109.9230  -44.0960 C   0  0  0  1  0  4  0  0  0  0  0  0
  131.3620  104.7839  -46.6850 C   0  0  0  1  0  3  0  0  0  0  0  0
  124.9010  110.3060  -44.7320 C   0  0  0  1  0  4  0  0  0  0  0  0
  125.1637  114.1076  -43.9526 C   0  0  0  1  0  4  0  0  0  0  0  0
  125.8040  111.5799  -42.6789 C   0  0  0  1  0  4  0  0  0  0  0  0
  126.3345  112.9316  -42.2334 C   0  0  0  1  0  4  0  0  0  0  0  0
  125.9010  109.1490  -44.6010 C   0  0  0  1  0  4  0  0  0  0  0  0
  125.3410  107.9150  -45.2920 C   0  0  0  1  0  4  0  0  0  0  0  0
  130.6306  103.6019  -46.7105 C   0  0  0  1  0  3  0  0  0  0  0  0
  129.6096  103.4493  -47.6468 C   0  0  0  1  0  3  0  0  0  0  0  0
  124.5315  112.8147  -44.4413 C   0  0  0  1  0  4  0  0  0  0  0  0
  121.1655  106.3364  -47.2639 O   0  0  0  1  0  2  0  0  0  0  0  0
  120.8427  106.4593  -50.4620 I   0  0  0  1  0  1  0  0  0  0  0  0
  128.5189  104.3562  -49.2580 H   0  0  0  1  0  1  0  0  0  0  0  0
  130.3718  107.5834  -49.3111 H   0  0  0  1  0  1  0  0  0  0  0  0
  124.0600  107.3680  -43.8140 H   0  0  0  1  0  1  0  0  0  0  0  0
  120.5080  106.3359  -47.9503 H   0  0  0  1  0  1  0  0  0  0  0  0
  123.9858  106.5847  -50.8411 H   0  0  0  1  0  1  0  0  0  0  0  0
  123.9049  105.4930  -45.1116 H   0  0  0  1  0  1  0  0  0  0  0  0
  122.3149  106.3181  -45.2424 H   0  0  0  1  0  1  0  0  0  0  0  0
  126.3137  111.7932  -44.6434 H   0  0  0  1  0  1  0  0  0  0  0  0
  122.0300  108.4400  -44.3820 H   0  0  0  1  0  1  0  0  0  0  0  0
  122.8000  109.0220  -45.8970 H   0  0  0  1  0  1  0  0  0  0  0  0
  125.6881  106.5064  -46.8926 H   0  0  0  1  0  1  0  0  0  0  0  0
  128.9460  105.8286  -51.0712 H   0  0  0  1  0  1  0  0  0  0  0  0
  128.8887  107.6233  -51.0482 H   0  0  0  1  0  1  0  0  0  0  0  0
  131.6473  106.7277  -47.5557 H   0  0  0  1  0  1  0  0  0  0  0  0
  123.7270  109.6460  -43.0440 H   0  0  0  1  0  1  0  0  0  0  0  0
  122.8750  110.7760  -44.1500 H   0  0  0  1  0  1  0  0  0  0  0  0
  132.1602  104.9108  -45.9635 H   0  0  0  1  0  1  0  0  0  0  0  0
  124.7240  110.4720  -45.8050 H   0  0  0  1  0  1  0  0  0  0  0  0
  126.1318  114.2539  -44.4536 H   0  0  0  1  0  1  0  0  0  0  0  0
  125.3200  114.0505  -42.8649 H   0  0  0  1  0  1  0  0  0  0  0  0
  124.4983  114.9524  -44.1848 H   0  0  0  1  0  1  0  0  0  0  0  0
  126.5745  110.8133  -42.5097 H   0  0  0  1  0  1  0  0  0  0  0  0
  124.9045  111.3313  -42.0951 H   0  0  0  1  0  1  0  0  0  0  0  0
  126.5881  112.8921  -41.1642 H   0  0  0  1  0  1  0  0  0  0  0  0
  125.5660  113.7002  -42.4002 H   0  0  0  1  0  1  0  0  0  0  0  0
  127.2354  113.1825  -42.8144 H   0  0  0  1  0  1  0  0  0  0  0  0
  126.0690  108.9290  -43.5370 H   0  0  0  1  0  1  0  0  0  0  0  0
  126.8540  109.4330  -45.0720 H   0  0  0  1  0  1  0  0  0  0  0  0
  125.2990  108.0960  -46.3760 H   0  0  0  1  0  1  0  0  0  0  0  0
  126.0010  107.0580  -45.0890 H   0  0  0  1  0  1  0  0  0  0  0  0
  130.8534  102.8061  -46.0092 H   0  0  0  1  0  1  0  0  0  0  0  0
  129.0378  102.5287  -47.6814 H   0  0  0  1  0  1  0  0  0  0  0  0
  123.5712  112.6647  -43.9257 H   0  0  0  1  0  1  0  0  0  0  0  0
  124.3583  112.8841  -45.5258 H   0  0  0  1  0  1  0  0  0  0  0  0
  1 14  1  0  0  0  0
  1 15  1  0  0  0  0
  1 32  1  0  0  0  0
  2  8  1  0  0  0  0
  2  9  1  0  0  0  0
  2 25  1  0  0  0  0
  2 33  1  0  0  0  0
  3 20  1  0  0  0  0
  3 22  1  0  0  0  0
  3 28  1  0  0  0  0
  3 38  1  0  0  0  0
  4 15  2  0  0  0  0
  4 27  1  0  0  0  0
  4 31  1  0  0  0  0
  5  7  2  0  0  0  0
  5 10  1  0  0  0  0
  5 11  1  0  0  0  0
  6  8  1  0  0  0  0
  6 10  2  0  0  0  0
  6 16  1  0  0  0  0
  7 12  1  0  0  0  0
  7 35  1  0  0  0  0
  8 36  1  0  0  0  0
  8 37  1  0  0  0  0
  9 18  1  0  0  0  0
  9 39  1  0  0  0  0
  9 40  1  0  0  0  0
 10 41  1  0  0  0  0
 11 13  3  0  0  0  0
 12 16  2  0  0  0  0
 12 30  1  0  0  0  0
 13 14  1  0  0  0  0
 14 42  1  0  0  0  0
 14 43  1  0  0  0  0
 15 17  1  0  0  0  0
 16 29  1  0  0  0  0
 17 19  2  0  0  0  0
 17 44  1  0  0  0  0
 18 20  1  0  0  0  0
 18 45  1  0  0  0  0
 18 46  1  0  0  0  0
 19 26  1  0  0  0  0
 19 47  1  0  0  0  0
 20 24  1  0  0  0  0
 20 48  1  0  0  0  0
 21 28  1  0  0  0  0
 21 49  1  0  0  0  0
 21 50  1  0  0  0  0
 21 51  1  0  0  0  0
 22 23  1  0  0  0  0
 22 52  1  0  0  0  0
 22 53  1  0  0  0  0
 23 54  1  0  0  0  0
 23 55  1  0  0  0  0
 23 56  1  0  0  0  0
 24 25  1  0  0  0  0
 24 57  1  0  0  0  0
 24 58  1  0  0  0  0
 25 59  1  0  0  0  0
 25 60  1  0  0  0  0
 26 27  2  0  0  0  0
 26 61  1  0  0  0  0
 27 62  1  0  0  0  0
 28 63  1  0  0  0  0
 28 64  1  0  0  0  0
 29 34  1  0  0  0  0
M  END
> <ConfScore>
-0.428869 

$$$$
4agq


 64 66  0  0  0  0  0  0  0  0999 V2000
  126.0249  102.8360  -39.3985 N   0  0  0  1  0  3  0  0  0  0  0  0
  123.9580  107.6030  -44.7890 N   0  3  0  1  0  4  0  0  0  0  0  0
  125.4500  111.6190  -44.1530 N   0  3  0  1  0  4  0  0  0  0  0  0
  126.0230  103.6798  -37.0921 C   0  0  0  1  0  3  0  0  0  0  0  0
  125.5713  103.5754  -44.1628 C   0  0  0  1  0  3  0  0  0  0  0  0
  124.3066  105.1988  -45.4540 C   0  0  0  1  0  3  0  0  0  0  0  0
  126.0338  102.9909  -45.3500 C   0  0  0  1  0  3  0  0  0  0  0  0
  123.3850  106.3880  -45.4850 C   0  0  0  1  0  4  0  0  0  0  0  0
  122.9790  108.7410  -44.8490 C   0  0  0  1  0  4  0  0  0  0  0  0
  124.7001  104.6696  -44.2175 C   0  0  0  1  0  3  0  0  0  0  0  0
  125.9425  103.0439  -42.8902 C   0  0  0  1  0  2  0  0  0  0  0  0
  125.6402  103.5065  -46.5928 C   0  0  0  1  0  3  0  0  0  0  0  0
  126.2246  102.6364  -41.7959 C   0  0  0  1  0  2  0  0  0  0  0  0
  126.6063  102.0897  -40.4861 C   0  0  0  1  0  4  0  0  0  0  0  0
  126.5855  102.9366  -38.1338 C   0  0  0  1  0  3  0  0  0  0  0  0
  124.7840  104.6103  -46.6348 C   0  0  0  1  0  3  0  0  0  0  0  0
  127.7880  102.2660  -37.8680 C   0  0  0  1  0  3  0  0  0  0  0  0
  123.5670  109.9230  -44.0960 C   0  0  0  1  0  4  0  0  0  0  0  0
  128.3996  102.3327  -36.6112 C   0  0  0  1  0  3  0  0  0  0  0  0
  124.9010  110.3060  -44.7320 C   0  0  0  1  0  4  0  0  0  0  0  0
  124.1868  112.8827  -45.9201 C   0  0  0  1  0  4  0  0  0  0  0  0
  125.8040  111.5799  -42.6789 C   0  0  0  1  0  4  0  0  0  0  0  0
  126.8094  110.4731  -42.4126 C   0  0  0  1  0  4  0  0  0  0  0  0
  125.9010  109.1490  -44.6010 C   0  0  0  1  0  4  0  0  0  0  0  0
  125.3410  107.9150  -45.2920 C   0  0  0  1  0  4  0  0  0  0  0  0
  127.8193  103.0776  -35.5908 C   0  0  0  1  0  3  0  0  0  0  0  0
  126.6224  103.7502  -35.8304 C   0  0  0  1  0  3  0  0  0  0  0  0
  124.5315  112.8147  -44.4413 C   0  0  0  1  0  4  0  0  0  0  0  0
  124.3705  105.1327  -47.8400 O   0  0  0  1  0  2  0  0  0  0  0  0
  126.3475  102.6606  -48.4124 I   0  0  0  1  0  1  0  0  0  0  0  0
  125.0971  104.2170  -37.2668 H   0  0  0  1  0  1  0  0  0  0  0  0
  125.1357  103.3254  -39.5712 H   0  0  0  1  0  1  0  0  0  0  0  0
  124.0600  107.3680  -43.8140 H   0  0  0  1  0  1  0  0  0  0  0  0
  124.7681  104.6411  -48.5498 H   0  0  0  1  0  1  0  0  0  0  0  0
  126.6983  102.1362  -45.3075 H   0  0  0  1  0  1  0  0  0  0  0  0
  122.4423  106.1125  -44.9889 H   0  0  0  1  0  1  0  0  0  0  0  0
  123.1846  106.6481  -46.5343 H   0  0  0  1  0  1  0  0  0  0  0  0
  126.3137  111.7932  -44.6434 H   0  0  0  1  0  1  0  0  0  0  0  0
  122.0300  108.4400  -44.3820 H   0  0  0  1  0  1  0  0  0  0  0  0
  122.8000  109.0220  -45.8970 H   0  0  0  1  0  1  0  0  0  0  0  0
  124.3278  105.1098  -43.2994 H   0  0  0  1  0  1  0  0  0  0  0  0
  126.2637  101.0457  -40.4237 H   0  0  0  1  0  1  0  0  0  0  0  0
  127.7014  102.1213  -40.3928 H   0  0  0  1  0  1  0  0  0  0  0  0
  128.2530  101.6824  -38.6542 H   0  0  0  1  0  1  0  0  0  0  0  0
  123.7270  109.6460  -43.0440 H   0  0  0  1  0  1  0  0  0  0  0  0
  122.8750  110.7760  -44.1500 H   0  0  0  1  0  1  0  0  0  0  0  0
  129.3279  101.8031  -36.4339 H   0  0  0  1  0  1  0  0  0  0  0  0
  124.7240  110.4720  -45.8050 H   0  0  0  1  0  1  0  0  0  0  0  0
  123.6884  111.9503  -46.2230 H   0  0  0  1  0  1  0  0  0  0  0  0
  125.1096  113.0108  -46.5057 H   0  0  0  1  0  1  0  0  0  0  0  0
  123.5147  113.7345  -46.1016 H   0  0  0  1  0  1  0  0  0  0  0  0
  124.8935  111.3930  -42.0907 H   0  0  0  1  0  1  0  0  0  0  0  0
  126.2397  112.5466  -42.3835 H   0  0  0  1  0  1  0  0  0  0  0  0
  127.0588  110.4535  -41.3418 H   0  0  0  1  0  1  0  0  0  0  0  0
  127.7216  110.6576  -42.9984 H   0  0  0  1  0  1  0  0  0  0  0  0
  126.3760  109.5044  -42.7055 H   0  0  0  1  0  1  0  0  0  0  0  0
  126.0690  108.9290  -43.5370 H   0  0  0  1  0  1  0  0  0  0  0  0
  126.8540  109.4330  -45.0720 H   0  0  0  1  0  1  0  0  0  0  0  0
  125.2990  108.0960  -46.3760 H   0  0  0  1  0  1  0  0  0  0  0  0
  126.0010  107.0580  -45.0890 H   0  0  0  1  0  1  0  0  0  0  0  0
  128.2932  103.1334  -34.6177 H   0  0  0  1  0  1  0  0  0  0  0  0
  126.1565  104.3276  -35.0398 H   0  0  0  1  0  1  0  0  0  0  0  0
  125.0440  113.7427  -44.1468 H   0  0  0  1  0  1  0  0  0  0  0  0
  123.6044  112.7071  -43.8584 H   0  0  0  1  0  1  0  0  0  0  0  0
  1 14  1  0  0  0  0
  1 15  1  0  0  0  0
  1 32  1  0  0  0  0
  2  8  1  0  0  0  0
  2  9  1  0  0  0  0
  2 25  1  0  0  0  0
  2 33  1  0  0  0  0
  3 20  1  0  0  0  0
  3 22  1  0  0  0  0
  3 28  1  0  0  0  0
  3 38  1  0  0  0  0
  4 15  2  0  0  0  0
  4 27  1  0  0  0  0
  4 31  1  0  0  0  0
  5  7  2  0  0  0  0
  5 10  1  0  0  0  0
  5 11  1  0  0  0  0
  6  8  1  0  0  0  0
  6 10  2  0  0  0  0
  6 16  1  0  0  0  0
  7 12  1  0  0  0  0
  7 35  1  0  0  0  0
  8 36  1  0  0  0  0
  8 37  1  0  0  0  0
  9 18  1  0  0  0  0
  9 39  1  0  0  0  0
  9 40  1  0  0  0  0
 10 41  1  0  0  0  0
 11 13  3  0  0  0  0
 12 16  2  0  0  0  0
 12 30  1  0  0  0  0
 13 14  1  0  0  0  0
 14 42  1  0  0  0  0
 14 43  1  0  0  0  0
 15 17  1  0  0  0  0
 16 29  1  0  0  0  0
 17 19  2  0  0  0  0
 17 44  1  0  0  0  0
 18 20  1  0  0  0  0
 18 45  1  0  0  0  0
 18 46  1  0  0  0  0
 19 26  1  0  0  0  0
 19 47  1  0  0  0  0
 20 24  1  0  0  0  0
 20 48  1  0  0  0  0
 21 28  1  0  0  0  0
 21 49  1  0  0  0  0
 21 50  1  0  0  0  0
 21 51  1  0  0  0  0
 22 23  1  0  0  0  0
 22 52  1  0  0  0  0
 22 53  1  0  0  0  0
 23 54  1  0  0  0  0
 23 55  1  0  0  0  0
 23 56  1  0  0  0  0
 24 25  1  0  0  0  0
 24 57  1  0  0  0  0
 24 58  1  0  0  0  0
 25 59  1  0  0  0  0
 25 60  1  0  0  0  0
 26 27  2  0  0  0  0
 26 61  1  0  0  0  0
 27 62  1  0  0  0  0
 28 63  1  0  0  0  0
 28 64  1  0  0  0  0
 29 34  1  0  0  0  0
M  END
> <ConfScore>
-0.42571 

$$$$
4agq


 64 66  0  0  0  0  0  0  0  0999 V2000
  125.1641   98.2888  -46.9716 N   0  0  0  1  0  3  0  0  0  0  0  0
  123.9580  107.6030  -44.7890 N   0  3  0  1  0  4  0  0  0  0  0  0
  125.4500  111.6190  -44.1530 N   0  3  0  1  0  4  0  0  0  0  0  0
  126.3212   96.1241  -46.8878 C   0  0  0  1  0  3  0  0  0  0  0  0
  124.4007  102.7364  -45.2146 C   0  0  0  1  0  3  0  0  0  0  0  0
  123.8758  105.0884  -44.9066 C   0  0  0  1  0  3  0  0  0  0  0  0
  124.7731  102.6426  -43.8665 C   0  0  0  1  0  3  0  0  0  0  0  0
  123.3850  106.3880  -45.4850 C   0  0  0  1  0  4  0  0  0  0  0  0
  122.9790  108.7410  -44.8490 C   0  0  0  1  0  4  0  0  0  0  0  0
  123.9646  103.9608  -45.7341 C   0  0  0  1  0  3  0  0  0  0  0  0
  124.4994  101.6071  -46.0833 C   0  0  0  1  0  2  0  0  0  0  0  0
  124.6964  103.7659  -43.0312 C   0  0  0  1  0  3  0  0  0  0  0  0
  124.5998  100.6273  -46.7712 C   0  0  0  1  0  2  0  0  0  0  0  0
  124.7015   99.4650  -47.6648 C   0  0  0  1  0  4  0  0  0  0  0  0
  125.8597   97.2511  -47.5741 C   0  0  0  1  0  3  0  0  0  0  0  0
  124.2427  104.9788  -43.5568 C   0  0  0  1  0  3  0  0  0  0  0  0
  126.1297   97.3215  -48.9483 C   0  0  0  1  0  3  0  0  0  0  0  0
  123.5670  109.9230  -44.0960 C   0  0  0  1  0  4  0  0  0  0  0  0
  126.8283   96.3047  -49.6088 C   0  0  0  1  0  3  0  0  0  0  0  0
  124.9010  110.3060  -44.7320 C   0  0  0  1  0  4  0  0  0  0  0  0
  125.1637  114.1076  -43.9526 C   0  0  0  1  0  4  0  0  0  0  0  0
  125.8040  111.5799  -42.6789 C   0  0  0  1  0  4  0  0  0  0  0  0
  126.3552  112.9249  -42.2386 C   0  0  0  1  0  4  0  0  0  0  0  0
  125.9010  109.1490  -44.6010 C   0  0  0  1  0  4  0  0  0  0  0  0
  125.3410  107.9150  -45.2920 C   0  0  0  1  0  4  0  0  0  0  0  0
  127.2756   95.1930  -48.9040 C   0  0  0  1  0  3  0  0  0  0  0  0
  127.0163   95.0993  -47.5379 C   0  0  0  1  0  3  0  0  0  0  0  0
  124.5315  112.8147  -44.4413 C   0  0  0  1  0  4  0  0  0  0  0  0
  124.1669  106.1027  -42.7646 O   0  0  0  1  0  2  0  0  0  0  0  0
  125.2263  103.6495  -40.9740 I   0  0  0  1  0  1  0  0  0  0  0  0
  126.1359   96.0423  -45.8223 H   0  0  0  1  0  1  0  0  0  0  0  0
  124.9647   98.2137  -45.9643 H   0  0  0  1  0  1  0  0  0  0  0  0
  124.0600  107.3680  -43.8140 H   0  0  0  1  0  1  0  0  0  0  0  0
  124.4427  105.8852  -41.8814 H   0  0  0  1  0  1  0  0  0  0  0  0
  125.1224  101.6977  -43.4676 H   0  0  0  1  0  1  0  0  0  0  0  0
  122.2887  106.4181  -45.3960 H   0  0  0  1  0  1  0  0  0  0  0  0
  123.6677  106.4274  -46.5468 H   0  0  0  1  0  1  0  0  0  0  0  0
  126.3137  111.7932  -44.6434 H   0  0  0  1  0  1  0  0  0  0  0  0
  122.0300  108.4400  -44.3820 H   0  0  0  1  0  1  0  0  0  0  0  0
  122.8000  109.0220  -45.8970 H   0  0  0  1  0  1  0  0  0  0  0  0
  123.6944  104.0377  -46.7811 H   0  0  0  1  0  1  0  0  0  0  0  0
  123.7087   99.2579  -48.0923 H   0  0  0  1  0  1  0  0  0  0  0  0
  125.4066   99.6997  -48.4751 H   0  0  0  1  0  1  0  0  0  0  0  0
  125.7884   98.1828  -49.5109 H   0  0  0  1  0  1  0  0  0  0  0  0
  123.7270  109.6460  -43.0440 H   0  0  0  1  0  1  0  0  0  0  0  0
  122.8750  110.7760  -44.1500 H   0  0  0  1  0  1  0  0  0  0  0  0
  127.0214   96.3852  -50.6718 H   0  0  0  1  0  1  0  0  0  0  0  0
  124.7240  110.4720  -45.8050 H   0  0  0  1  0  1  0  0  0  0  0  0
  126.1318  114.2539  -44.4536 H   0  0  0  1  0  1  0  0  0  0  0  0
  125.3200  114.0505  -42.8649 H   0  0  0  1  0  1  0  0  0  0  0  0
  124.4983  114.9524  -44.1848 H   0  0  0  1  0  1  0  0  0  0  0  0
  126.5628  110.8023  -42.5072 H   0  0  0  1  0  1  0  0  0  0  0  0
  124.9011  111.3471  -42.0938 H   0  0  0  1  0  1  0  0  0  0  0  0
  126.6086  112.8856  -41.1692 H   0  0  0  1  0  1  0  0  0  0  0  0
  125.5984  113.7046  -42.4078 H   0  0  0  1  0  1  0  0  0  0  0  0
  127.2595  113.1601  -42.8208 H   0  0  0  1  0  1  0  0  0  0  0  0
  126.0690  108.9290  -43.5370 H   0  0  0  1  0  1  0  0  0  0  0  0
  126.8540  109.4330  -45.0720 H   0  0  0  1  0  1  0  0  0  0  0  0
  125.2990  108.0960  -46.3760 H   0  0  0  1  0  1  0  0  0  0  0  0
  126.0010  107.0580  -45.0890 H   0  0  0  1  0  1  0  0  0  0  0  0
  127.8200   94.4060  -49.4130 H   0  0  0  1  0  1  0  0  0  0  0  0
  127.3533   94.2332  -46.9794 H   0  0  0  1  0  1  0  0  0  0  0  0
  123.5712  112.6647  -43.9257 H   0  0  0  1  0  1  0  0  0  0  0  0
  124.3583  112.8841  -45.5258 H   0  0  0  1  0  1  0  0  0  0  0  0
  1 14  1  0  0  0  0
  1 15  1  0  0  0  0
  1 32  1  0  0  0  0
  2  8  1  0  0  0  0
  2  9  1  0  0  0  0
  2 25  1  0  0  0  0
  2 33  1  0  0  0  0
  3 20  1  0  0  0  0
  3 22  1  0  0  0  0
  3 28  1  0  0  0  0
  3 38  1  0  0  0  0
  4 15  2  0  0  0  0
  4 27  1  0  0  0  0
  4 31  1  0  0  0  0
  5  7  2  0  0  0  0
  5 10  1  0  0  0  0
  5 11  1  0  0  0  0
  6  8  1  0  0  0  0
  6 10  2  0  0  0  0
  6 16  1  0  0  0  0
  7 12  1  0  0  0  0
  7 35  1  0  0  0  0
  8 36  1  0  0  0  0
  8 37  1  0  0  0  0
  9 18  1  0  0  0  0
  9 39  1  0  0  0  0
  9 40  1  0  0  0  0
 10 41  1  0  0  0  0
 11 13  3  0  0  0  0
 12 16  2  0  0  0  0
 12 30  1  0  0  0  0
 13 14  1  0  0  0  0
 14 42  1  0  0  0  0
 14 43  1  0  0  0  0
 15 17  1  0  0  0  0
 16 29  1  0  0  0  0
 17 19  2  0  0  0  0
 17 44  1  0  0  0  0
 18 20  1  0  0  0  0
 18 45  1  0  0  0  0
 18 46  1  0  0  0  0
 19 26  1  0  0  0  0
 19 47  1  0  0  0  0
 20 24  1  0  0  0  0
 20 48  1  0  0  0  0
 21 28  1  0  0  0  0
 21 49  1  0  0  0  0
 21 50  1  0  0  0  0
 21 51  1  0  0  0  0
 22 23  1  0  0  0  0
 22 52  1  0  0  0  0
 22 53  1  0  0  0  0
 23 54  1  0  0  0  0
 23 55  1  0  0  0  0
 23 56  1  0  0  0  0
 24 25  1  0  0  0  0
 24 57  1  0  0  0  0
 24 58  1  0  0  0  0
 25 59  1  0  0  0  0
 25 60  1  0  0  0  0
 26 27  2  0  0  0  0
 26 61  1  0  0  0  0
 27 62  1  0  0  0  0
 28 63  1  0  0  0  0
 28 64  1  0  0  0  0
 29 34  1  0  0  0  0
M  END
> <ConfScore>
-0.425239 

$$$$
4agq


 64 66  0  0  0  0  0  0  0  0999 V2000
  124.2326   99.8365  -49.0893 N   0  0  0  1  0  3  0  0  0  0  0  0
  123.9580  107.6030  -44.7890 N   0  3  0  1  0  4  0  0  0  0  0  0
  125.4500  111.6190  -44.1530 N   0  3  0  1  0  4  0  0  0  0  0  0
  123.2684   99.2233  -51.2632 C   0  0  0  1  0  3  0  0  0  0  0  0
  124.4007  102.7364  -45.2146 C   0  0  0  1  0  3  0  0  0  0  0  0
  123.8758  105.0884  -44.9066 C   0  0  0  1  0  3  0  0  0  0  0  0
  124.7731  102.6426  -43.8665 C   0  0  0  1  0  3  0  0  0  0  0  0
  123.3850  106.3880  -45.4850 C   0  0  0  1  0  4  0  0  0  0  0  0
  122.9790  108.7410  -44.8490 C   0  0  0  1  0  4  0  0  0  0  0  0
  123.9646  103.9608  -45.7341 C   0  0  0  1  0  3  0  0  0  0  0  0
  124.4994  101.6071  -46.0833 C   0  0  0  1  0  2  0  0  0  0  0  0
  124.6964  103.7659  -43.0312 C   0  0  0  1  0  3  0  0  0  0  0  0
  124.5629  100.6886  -46.8550 C   0  0  0  1  0  2  0  0  0  0  0  0
  124.6644   99.5268  -47.7493 C   0  0  0  1  0  4  0  0  0  0  0  0
  123.7026   98.9076  -49.9726 C   0  0  0  1  0  3  0  0  0  0  0  0
  124.2427  104.9788  -43.5568 C   0  0  0  1  0  3  0  0  0  0  0  0
  123.5827   97.5718  -49.5632 C   0  0  0  1  0  3  0  0  0  0  0  0
  123.5670  109.9230  -44.0960 C   0  0  0  1  0  4  0  0  0  0  0  0
  123.0544   96.5922  -50.4113 C   0  0  0  1  0  3  0  0  0  0  0  0
  124.9010  110.3060  -44.7320 C   0  0  0  1  0  4  0  0  0  0  0  0
  125.1637  114.1076  -43.9526 C   0  0  0  1  0  4  0  0  0  0  0  0
  125.8040  111.5799  -42.6789 C   0  0  0  1  0  4  0  0  0  0  0  0
  126.3552  112.9249  -42.2386 C   0  0  0  1  0  4  0  0  0  0  0  0
  125.9010  109.1490  -44.6010 C   0  0  0  1  0  4  0  0  0  0  0  0
  125.3410  107.9150  -45.2920 C   0  0  0  1  0  4  0  0  0  0  0  0
  122.6307   96.9313  -51.6913 C   0  0  0  1  0  3  0  0  0  0  0  0
  122.7431   98.2521  -52.1216 C   0  0  0  1  0  3  0  0  0  0  0  0
  124.5315  112.8147  -44.4413 C   0  0  0  1  0  4  0  0  0  0  0  0
  124.1669  106.1027  -42.7646 O   0  0  0  1  0  2  0  0  0  0  0  0
  125.2263  103.6495  -40.9740 I   0  0  0  1  0  1  0  0  0  0  0  0
  123.3400  100.2490  -51.6083 H   0  0  0  1  0  1  0  0  0  0  0  0
  124.3241  100.8100  -49.4119 H   0  0  0  1  0  1  0  0  0  0  0  0
  124.0600  107.3680  -43.8140 H   0  0  0  1  0  1  0  0  0  0  0  0
  124.4427  105.8852  -41.8814 H   0  0  0  1  0  1  0  0  0  0  0  0
  125.1224  101.6977  -43.4676 H   0  0  0  1  0  1  0  0  0  0  0  0
  122.2887  106.4181  -45.3960 H   0  0  0  1  0  1  0  0  0  0  0  0
  123.6677  106.4274  -46.5468 H   0  0  0  1  0  1  0  0  0  0  0  0
  126.3137  111.7932  -44.6434 H   0  0  0  1  0  1  0  0  0  0  0  0
  122.0300  108.4400  -44.3820 H   0  0  0  1  0  1  0  0  0  0  0  0
  122.8000  109.0220  -45.8970 H   0  0  0  1  0  1  0  0  0  0  0  0
  123.6944  104.0377  -46.7811 H   0  0  0  1  0  1  0  0  0  0  0  0
  125.7131   99.1944  -47.7819 H   0  0  0  1  0  1  0  0  0  0  0  0
  124.0363   98.7163  -47.3524 H   0  0  0  1  0  1  0  0  0  0  0  0
  123.9075   97.2926  -48.5675 H   0  0  0  1  0  1  0  0  0  0  0  0
  123.7270  109.6460  -43.0440 H   0  0  0  1  0  1  0  0  0  0  0  0
  122.8750  110.7760  -44.1500 H   0  0  0  1  0  1  0  0  0  0  0  0
  122.9749   95.5675  -50.0687 H   0  0  0  1  0  1  0  0  0  0  0  0
  124.7240  110.4720  -45.8050 H   0  0  0  1  0  1  0  0  0  0  0  0
  126.1318  114.2539  -44.4536 H   0  0  0  1  0  1  0  0  0  0  0  0
  125.3200  114.0505  -42.8649 H   0  0  0  1  0  1  0  0  0  0  0  0
  124.4983  114.9524  -44.1848 H   0  0  0  1  0  1  0  0  0  0  0  0
  126.5628  110.8023  -42.5072 H   0  0  0  1  0  1  0  0  0  0  0  0
  124.9011  111.3471  -42.0938 H   0  0  0  1  0  1  0  0  0  0  0  0
  126.6086  112.8856  -41.1692 H   0  0  0  1  0  1  0  0  0  0  0  0
  125.5984  113.7046  -42.4078 H   0  0  0  1  0  1  0  0  0  0  0  0
  127.2595  113.1601  -42.8208 H   0  0  0  1  0  1  0  0  0  0  0  0
  126.0690  108.9290  -43.5370 H   0  0  0  1  0  1  0  0  0  0  0  0
  126.8540  109.4330  -45.0720 H   0  0  0  1  0  1  0  0  0  0  0  0
  125.2990  108.0960  -46.3760 H   0  0  0  1  0  1  0  0  0  0  0  0
  126.0010  107.0580  -45.0890 H   0  0  0  1  0  1  0  0  0  0  0  0
  122.2180   96.1747  -52.3486 H   0  0  0  1  0  1  0  0  0  0  0  0
  122.4234   98.5266  -53.1206 H   0  0  0  1  0  1  0  0  0  0  0  0
  123.5712  112.6647  -43.9257 H   0  0  0  1  0  1  0  0  0  0  0  0
  124.3583  112.8841  -45.5258 H   0  0  0  1  0  1  0  0  0  0  0  0
  1 14  1  0  0  0  0
  1 15  1  0  0  0  0
  1 32  1  0  0  0  0
  2  8  1  0  0  0  0
  2  9  1  0  0  0  0
  2 25  1  0  0  0  0
  2 33  1  0  0  0  0
  3 20  1  0  0  0  0
  3 22  1  0  0  0  0
  3 28  1  0  0  0  0
  3 38  1  0  0  0  0
  4 15  2  0  0  0  0
  4 27  1  0  0  0  0
  4 31  1  0  0  0  0
  5  7  2  0  0  0  0
  5 10  1  0  0  0  0
  5 11  1  0  0  0  0
  6  8  1  0  0  0  0
  6 10  2  0  0  0  0
  6 16  1  0  0  0  0
  7 12  1  0  0  0  0
  7 35  1  0  0  0  0
  8 36  1  0  0  0  0
  8 37  1  0  0  0  0
  9 18  1  0  0  0  0
  9 39  1  0  0  0  0
  9 40  1  0  0  0  0
 10 41  1  0  0  0  0
 11 13  3  0  0  0  0
 12 16  2  0  0  0  0
 12 30  1  0  0  0  0
 13 14  1  0  0  0  0
 14 42  1  0  0  0  0
 14 43  1  0  0  0  0
 15 17  1  0  0  0  0
 16 29  1  0  0  0  0
 17 19  2  0  0  0  0
 17 44  1  0  0  0  0
 18 20  1  0  0  0  0
 18 45  1  0  0  0  0
 18 46  1  0  0  0  0
 19 26  1  0  0  0  0
 19 47  1  0  0  0  0
 20 24  1  0  0  0  0
 20 48  1  0  0  0  0
 21 28  1  0  0  0  0
 21 49  1  0  0  0  0
 21 50  1  0  0  0  0
 21 51  1  0  0  0  0
 22 23  1  0  0  0  0
 22 52  1  0  0  0  0
 22 53  1  0  0  0  0
 23 54  1  0  0  0  0
 23 55  1  0  0  0  0
 23 56  1  0  0  0  0
 24 25  1  0  0  0  0
 24 57  1  0  0  0  0
 24 58  1  0  0  0  0
 25 59  1  0  0  0  0
 25 60  1  0  0  0  0
 26 27  2  0  0  0  0
 26 61  1  0  0  0  0
 27 62  1  0  0  0  0
 28 63  1  0  0  0  0
 28 64  1  0  0  0  0
 29 34  1  0  0  0  0
M  END
> <ConfScore>
-0.425239 

$$$$
4agq


 64 66  0  0  0  0  0  0  0  0999 V2000
   90.5295   90.4910  -48.7983 N   0  0  0  1  0  3  0  0  0  0  0  0
   90.4980   98.3810  -44.6910 N   0  3  0  1  0  4  0  0  0  0  0  0
   92.0470  102.3711  -44.2402 N   0  3  0  1  0  4  0  0  0  0  0  0
   90.6264   91.5934  -50.9908 C   0  0  0  1  0  3  0  0  0  0  0  0
   91.0040   93.5374  -45.0640 C   0  0  0  1  0  3  0  0  0  0  0  0
   90.4948   95.8988  -44.7838 C   0  0  0  1  0  3  0  0  0  0  0  0
   91.4677   93.4593  -43.7444 C   0  0  0  1  0  3  0  0  0  0  0  0
   89.9050   97.1660  -45.3350 C   0  0  0  1  0  4  0  0  0  0  0  0
   89.5430   99.5450  -44.7170 C   0  0  0  1  0  4  0  0  0  0  0  0
   90.5195   94.7482  -45.5821 C   0  0  0  1  0  3  0  0  0  0  0  0
   91.0247   92.3729  -45.8904 C   0  0  0  1  0  2  0  0  0  0  0  0
   91.4378   94.6248  -42.9613 C   0  0  0  1  0  3  0  0  0  0  0  0
   91.0206   91.4234  -46.6266 C   0  0  0  1  0  2  0  0  0  0  0  0
   91.0417   90.2253  -47.4774 C   0  0  0  1  0  4  0  0  0  0  0  0
   91.1428   91.3272  -49.7194 C   0  0  0  1  0  3  0  0  0  0  0  0
   90.9571   95.8573  -43.4420 C   0  0  0  1  0  3  0  0  0  0  0  0
   92.3536   91.9453  -49.3755 C   0  0  0  1  0  3  0  0  0  0  0  0
   90.1750  100.7310  -44.0050 C   0  0  0  1  0  4  0  0  0  0  0  0
   93.0175   92.7975  -50.2649 C   0  0  0  1  0  3  0  0  0  0  0  0
   91.4300  101.0810  -44.8020 C   0  0  0  1  0  4  0  0  0  0  0  0
   91.0112  101.8901  -42.0016 C   0  0  0  1  0  4  0  0  0  0  0  0
   93.3055  102.8464  -44.9401 C   0  0  0  1  0  4  0  0  0  0  0  0
   93.3786  102.2589  -46.3388 C   0  0  0  1  0  4  0  0  0  0  0  0
   92.4510   99.9400  -44.6950 C   0  0  0  1  0  4  0  0  0  0  0  0
   91.8210   98.7070  -45.3220 C   0  0  0  1  0  4  0  0  0  0  0  0
   92.4824   93.0476  -51.5235 C   0  0  0  1  0  3  0  0  0  0  0  0
   91.2784   92.4470  -51.8865 C   0  0  0  1  0  3  0  0  0  0  0  0
   92.2851  102.2943  -42.7257 C   0  0  0  1  0  4  0  0  0  0  0  0
   90.9361   96.9784  -42.6425 O   0  0  0  1  0  2  0  0  0  0  0  0
   92.1506   94.5227  -40.9593 I   0  0  0  1  0  1  0  0  0  0  0  0
   89.6955   91.1250  -51.2912 H   0  0  0  1  0  1  0  0  0  0  0  0
   89.6512   90.0309  -49.0759 H   0  0  0  1  0  1  0  0  0  0  0  0
   90.6653   98.1804  -43.7173 H   0  0  0  1  0  1  0  0  0  0  0  0
   91.5722   96.8791  -41.9433 H   0  0  0  1  0  1  0  0  0  0  0  0
   91.8392   92.5257  -43.3392 H   0  0  0  1  0  1  0  0  0  0  0  0
   90.0975   97.2069  -46.4176 H   0  0  0  1  0  1  0  0  0  0  0  0
   88.8204   97.1614  -45.1550 H   0  0  0  1  0  1  0  0  0  0  0  0
   91.3562  103.0907  -44.3880 H   0  0  0  1  0  1  0  0  0  0  0  0
   88.6097   99.2655  -44.2070 H   0  0  0  1  0  1  0  0  0  0  0  0
   89.3242   99.8170  -45.7598 H   0  0  0  1  0  1  0  0  0  0  0  0
   90.1626   94.7931  -46.6048 H   0  0  0  1  0  1  0  0  0  0  0  0
   92.0797   89.8695  -47.5638 H   0  0  0  1  0  1  0  0  0  0  0  0
   90.4257   89.4448  -47.0082 H   0  0  0  1  0  1  0  0  0  0  0  0
   92.7837   91.7589  -48.3982 H   0  0  0  1  0  1  0  0  0  0  0  0
   90.4412  100.4594  -42.9733 H   0  0  0  1  0  1  0  0  0  0  0  0
   89.4803  101.5835  -43.9926 H   0  0  0  1  0  1  0  0  0  0  0  0
   93.9510   93.2626  -49.9716 H   0  0  0  1  0  1  0  0  0  0  0  0
   91.1612  101.2321  -45.8580 H   0  0  0  1  0  1  0  0  0  0  0  0
   90.6730  100.9123  -42.3742 H   0  0  0  1  0  1  0  0  0  0  0  0
   90.2300  102.6423  -42.1876 H   0  0  0  1  0  1  0  0  0  0  0  0
   91.2083  101.8238  -40.9213 H   0  0  0  1  0  1  0  0  0  0  0  0
   94.1859  102.5248  -44.3644 H   0  0  0  1  0  1  0  0  0  0  0  0
   93.2921  103.9451  -45.0068 H   0  0  0  1  0  1  0  0  0  0  0  0
   94.2942  102.6095  -46.8368 H   0  0  0  1  0  1  0  0  0  0  0  0
   92.5003  102.5796  -46.9176 H   0  0  0  1  0  1  0  0  0  0  0  0
   93.3940  101.1599  -46.2756 H   0  0  0  1  0  1  0  0  0  0  0  0
   92.6877   99.7454  -43.6392 H   0  0  0  1  0  1  0  0  0  0  0  0
   93.3719  100.2075  -45.2346 H   0  0  0  1  0  1  0  0  0  0  0  0
   91.6686   98.8909  -46.3956 H   0  0  0  1  0  1  0  0  0  0  0  0
   92.5007   97.8517  -45.1886 H   0  0  0  1  0  1  0  0  0  0  0  0
   92.9968   93.7046  -52.2152 H   0  0  0  1  0  1  0  0  0  0  0  0
   90.8475   92.6410  -52.8624 H   0  0  0  1  0  1  0  0  0  0  0  0
   92.6106  103.2801  -42.3611 H   0  0  0  1  0  1  0  0  0  0  0  0
   93.0694  101.5503  -42.5204 H   0  0  0  1  0  1  0  0  0  0  0  0
  1 14  1  0  0  0  0
  1 15  1  0  0  0  0
  1 32  1  0  0  0  0
  2  8  1  0  0  0  0
  2  9  1  0  0  0  0
  2 25  1  0  0  0  0
  2 33  1  0  0  0  0
  3 20  1  0  0  0  0
  3 22  1  0  0  0  0
  3 28  1  0  0  0  0
  3 38  1  0  0  0  0
  4 15  2  0  0  0  0
  4 27  1  0  0  0  0
  4 31  1  0  0  0  0
  5  7  2  0  0  0  0
  5 10  1  0  0  0  0
  5 11  1  0  0  0  0
  6  8  1  0  0  0  0
  6 10  2  0  0  0  0
  6 16  1  0  0  0  0
  7 12  1  0  0  0  0
  7 35  1  0  0  0  0
  8 36  1  0  0  0  0
  8 37  1  0  0  0  0
  9 18  1  0  0  0  0
  9 39  1  0  0  0  0
  9 40  1  0  0  0  0
 10 41  1  0  0  0  0
 11 13  3  0  0  0  0
 12 16  2  0  0  0  0
 12 30  1  0  0  0  0
 13 14  1  0  0  0  0
 14 42  1  0  0  0  0
 14 43  1  0  0  0  0
 15 17  1  0  0  0  0
 16 29  1  0  0  0  0
 17 19  2  0  0  0  0
 17 44  1  0  0  0  0
 18 20  1  0  0  0  0
 18 45  1  0  0  0  0
 18 46  1  0  0  0  0
 19 26  1  0  0  0  0
 19 47  1  0  0  0  0
 20 24  1  0  0  0  0
 20 48  1  0  0  0  0
 21 28  1  0  0  0  0
 21 49  1  0  0  0  0
 21 50  1  0  0  0  0
 21 51  1  0  0  0  0
 22 23  1  0  0  0  0
 22 52  1  0  0  0  0
 22 53  1  0  0  0  0
 23 54  1  0  0  0  0
 23 55  1  0  0  0  0
 23 56  1  0  0  0  0
 24 25  1  0  0  0  0
 24 57  1  0  0  0  0
 24 58  1  0  0  0  0
 25 59  1  0  0  0  0
 25 60  1  0  0  0  0
 26 27  2  0  0  0  0
 26 61  1  0  0  0  0
 27 62  1  0  0  0  0
 28 63  1  0  0  0  0
 28 64  1  0  0  0  0
 29 34  1  0  0  0  0
M  END
> <ConfScore>
-0.407342 

$$$$
4agq


 64 66  0  0  0  0  0  0  0  0999 V2000
    4.0484   10.1857   28.8303 N   0  0  0  1  0  3  0  0  0  0  0  0
    5.4320    2.2550   28.3390 N   0  3  0  1  0  4  0  0  0  0  0  0
    4.8039   -1.3070   27.7628 N   0  3  0  1  0  4  0  0  0  0  0  0
    5.1917   10.4880   26.6779 C   0  0  0  1  0  3  0  0  0  0  0  0
    5.2980    6.0293   30.9784 C   0  0  0  1  0  3  0  0  0  0  0  0
    6.0741    3.9199   30.1561 C   0  0  0  1  0  3  0  0  0  0  0  0
    5.3485    5.5367   32.2638 C   0  0  0  1  0  3  0  0  0  0  0  0
    6.4640    3.0610   28.9950 C   0  0  0  1  0  4  0  0  0  0  0  0
    6.0520    1.4770   27.2550 C   0  0  0  1  0  4  0  0  0  0  0  0
    5.6775    5.2280   29.9300 C   0  0  0  1  0  3  0  0  0  0  0  0
    4.8538    7.3651   30.7377 C   0  0  0  1  0  2  0  0  0  0  0  0
    5.7750    4.2357   32.5009 C   0  0  0  1  0  3  0  0  0  0  0  0
    4.4882    8.4804   30.4814 C   0  0  0  1  0  2  0  0  0  0  0  0
    4.0312    9.8550   30.2333 C   0  0  0  1  0  4  0  0  0  0  0  0
    5.1900   10.1850   28.0426 C   0  0  0  1  0  3  0  0  0  0  0  0
    6.1425    3.4254   31.4477 C   0  0  0  1  0  3  0  0  0  0  0  0
    6.4208    9.8589   28.6298 C   0  0  0  1  0  3  0  0  0  0  0  0
    4.9600    0.8100   26.4490 C   0  0  0  1  0  4  0  0  0  0  0  0
    7.6045    9.8409   27.8837 C   0  0  0  1  0  3  0  0  0  0  0  0
    4.0370   -0.0500   27.3240 C   0  0  0  1  0  4  0  0  0  0  0  0
    6.5530   -2.2816   29.2815 C   0  0  0  1  0  4  0  0  0  0  0  0
    3.9398   -2.4867   28.1644 C   0  0  0  1  0  4  0  0  0  0  0  0
    3.0818   -2.9286   26.9916 C   0  0  0  1  0  4  0  0  0  0  0  0
    3.5580    0.6920   28.5700 C   0  0  0  1  0  4  0  0  0  0  0  0
    4.7240    1.3610   29.2750 C   0  0  0  1  0  4  0  0  0  0  0  0
    7.5803   10.1476   26.5279 C   0  0  0  1  0  3  0  0  0  0  0  0
    6.3690   10.4780   25.9229 C   0  0  0  1  0  3  0  0  0  0  0  0
    5.8324   -1.0103   28.8630 C   0  0  0  1  0  4  0  0  0  0  0  0
    6.5731    2.1377   31.6779 O   0  0  0  1  0  2  0  0  0  0  0  0
    5.8611    3.4927   34.4927 I   0  0  0  1  0  1  0  0  0  0  0  0
    4.2551   10.7369   26.1911 H   0  0  0  1  0  1  0  0  0  0  0  0
    3.1558   10.4395   28.3843 H   0  0  0  1  0  1  0  0  0  0  0  0
    4.7370    2.8836   27.9673 H   0  0  0  1  0  1  0  0  0  0  0  0
    7.3154    2.1547   32.2713 H   0  0  0  1  0  1  0  0  0  0  0  0
    5.0541    6.1671   33.0944 H   0  0  0  1  0  1  0  0  0  0  0  0
    6.8910    3.7259   28.2293 H   0  0  0  1  0  1  0  0  0  0  0  0
    7.2385    2.3670   29.3516 H   0  0  0  1  0  1  0  0  0  0  0  0
    5.3251   -1.6052   26.9527 H   0  0  0  1  0  1  0  0  0  0  0  0
    6.7160    0.7116   27.6824 H   0  0  0  1  0  1  0  0  0  0  0  0
    6.6342    2.1468   26.6055 H   0  0  0  1  0  1  0  0  0  0  0  0
    5.6666    5.6210   28.9197 H   0  0  0  1  0  1  0  0  0  0  0  0
    3.0026    9.9606   30.6105 H   0  0  0  1  0  1  0  0  0  0  0  0
    4.6908   10.5517   30.7703 H   0  0  0  1  0  1  0  0  0  0  0  0
    6.4553    9.6162   29.6856 H   0  0  0  1  0  1  0  0  0  0  0  0
    5.4245    0.1680   25.6867 H   0  0  0  1  0  1  0  0  0  0  0  0
    4.3579    1.5876   25.9568 H   0  0  0  1  0  1  0  0  0  0  0  0
    8.5416    9.5865   28.3642 H   0  0  0  1  0  1  0  0  0  0  0  0
    3.1597   -0.3441   26.7290 H   0  0  0  1  0  1  0  0  0  0  0  0
    7.0588   -2.7197   28.4087 H   0  0  0  1  0  1  0  0  0  0  0  0
    5.8230   -3.0018   29.6804 H   0  0  0  1  0  1  0  0  0  0  0  0
    7.2967   -2.0439   30.0565 H   0  0  0  1  0  1  0  0  0  0  0  0
    3.2885   -2.1930   29.0009 H   0  0  0  1  0  1  0  0  0  0  0  0
    4.5858   -3.3211   28.4778 H   0  0  0  1  0  1  0  0  0  0  0  0
    2.4596   -3.7835   27.2935 H   0  0  0  1  0  1  0  0  0  0  0  0
    3.7299   -3.2241   26.1539 H   0  0  0  1  0  1  0  0  0  0  0  0
    2.4330   -2.0967   26.6768 H   0  0  0  1  0  1  0  0  0  0  0  0
    3.0835   -0.0237   29.2565 H   0  0  0  1  0  1  0  0  0  0  0  0
    2.8259    1.4587   28.2750 H   0  0  0  1  0  1  0  0  0  0  0  0
    4.3473    1.9482   30.1252 H   0  0  0  1  0  1  0  0  0  0  0  0
    5.4199    0.5905   29.6402 H   0  0  0  1  0  1  0  0  0  0  0  0
    8.4954   10.1308   25.9475 H   0  0  0  1  0  1  0  0  0  0  0  0
    6.3391   10.7268   24.8680 H   0  0  0  1  0  1  0  0  0  0  0  0
    5.3149   -0.5846   29.7357 H   0  0  0  1  0  1  0  0  0  0  0  0
    6.5684   -0.2855   28.4838 H   0  0  0  1  0  1  0  0  0  0  0  0
  1 14  1  0  0  0  0
  1 15  1  0  0  0  0
  1 32  1  0  0  0  0
  2  8  1  0  0  0  0
  2  9  1  0  0  0  0
  2 25  1  0  0  0  0
  2 33  1  0  0  0  0
  3 20  1  0  0  0  0
  3 22  1  0  0  0  0
  3 28  1  0  0  0  0
  3 38  1  0  0  0  0
  4 15  2  0  0  0  0
  4 27  1  0  0  0  0
  4 31  1  0  0  0  0
  5  7  2  0  0  0  0
  5 10  1  0  0  0  0
  5 11  1  0  0  0  0
  6  8  1  0  0  0  0
  6 10  2  0  0  0  0
  6 16  1  0  0  0  0
  7 12  1  0  0  0  0
  7 35  1  0  0  0  0
  8 36  1  0  0  0  0
  8 37  1  0  0  0  0
  9 18  1  0  0  0  0
  9 39  1  0  0  0  0
  9 40  1  0  0  0  0
 10 41  1  0  0  0  0
 11 13  3  0  0  0  0
 12 16  2  0  0  0  0
 12 30  1  0  0  0  0
 13 14  1  0  0  0  0
 14 42  1  0  0  0  0
 14 43  1  0  0  0  0
 15 17  1  0  0  0  0
 16 29  1  0  0  0  0
 17 19  2  0  0  0  0
 17 44  1  0  0  0  0
 18 20  1  0  0  0  0
 18 45  1  0  0  0  0
 18 46  1  0  0  0  0
 19 26  1  0  0  0  0
 19 47  1  0  0  0  0
 20 24  1  0  0  0  0
 20 48  1  0  0  0  0
 21 28  1  0  0  0  0
 21 49  1  0  0  0  0
 21 50  1  0  0  0  0
 21 51  1  0  0  0  0
 22 23  1  0  0  0  0
 22 52  1  0  0  0  0
 22 53  1  0  0  0  0
 23 54  1  0  0  0  0
 23 55  1  0  0  0  0
 23 56  1  0  0  0  0
 24 25  1  0  0  0  0
 24 57  1  0  0  0  0
 24 58  1  0  0  0  0
 25 59  1  0  0  0  0
 25 60  1  0  0  0  0
 26 27  2  0  0  0  0
 26 61  1  0  0  0  0
 27 62  1  0  0  0  0
 28 63  1  0  0  0  0
 28 64  1  0  0  0  0
 29 34  1  0  0  0  0
M  END
> <ConfScore>
-0.403532 

$$$$
4agq


 64 66  0  0  0  0  0  0  0  0999 V2000
   90.5295   90.4910  -48.7983 N   0  0  0  1  0  3  0  0  0  0  0  0
   90.4980   98.3810  -44.6910 N   0  3  0  1  0  4  0  0  0  0  0  0
   92.0470  102.3711  -44.2402 N   0  3  0  1  0  4  0  0  0  0  0  0
   88.7475   91.1638  -50.3486 C   0  0  0  1  0  3  0  0  0  0  0  0
   91.0040   93.5374  -45.0640 C   0  0  0  1  0  3  0  0  0  0  0  0
   90.4948   95.8988  -44.7838 C   0  0  0  1  0  3  0  0  0  0  0  0
   91.4677   93.4593  -43.7444 C   0  0  0  1  0  3  0  0  0  0  0  0
   89.9050   97.1660  -45.3350 C   0  0  0  1  0  4  0  0  0  0  0  0
   89.5430   99.5450  -44.7170 C   0  0  0  1  0  4  0  0  0  0  0  0
   90.5195   94.7482  -45.5821 C   0  0  0  1  0  3  0  0  0  0  0  0
   91.0247   92.3729  -45.8904 C   0  0  0  1  0  2  0  0  0  0  0  0
   91.4378   94.6248  -42.9613 C   0  0  0  1  0  3  0  0  0  0  0  0
   91.0206   91.4234  -46.6266 C   0  0  0  1  0  2  0  0  0  0  0  0
   91.0417   90.2253  -47.4774 C   0  0  0  1  0  4  0  0  0  0  0  0
   89.2399   90.9284  -49.0617 C   0  0  0  1  0  3  0  0  0  0  0  0
   90.9571   95.8573  -43.4420 C   0  0  0  1  0  3  0  0  0  0  0  0
   88.3677   91.1584  -47.9881 C   0  0  0  1  0  3  0  0  0  0  0  0
   90.1750  100.7310  -44.0050 C   0  0  0  1  0  4  0  0  0  0  0  0
   87.0563   91.6012  -48.1940 C   0  0  0  1  0  3  0  0  0  0  0  0
   91.4300  101.0810  -44.8020 C   0  0  0  1  0  4  0  0  0  0  0  0
   91.0112  101.8901  -42.0016 C   0  0  0  1  0  4  0  0  0  0  0  0
   93.3055  102.8464  -44.9401 C   0  0  0  1  0  4  0  0  0  0  0  0
   93.3786  102.2589  -46.3388 C   0  0  0  1  0  4  0  0  0  0  0  0
   92.4510   99.9400  -44.6950 C   0  0  0  1  0  4  0  0  0  0  0  0
   91.8210   98.7070  -45.3220 C   0  0  0  1  0  4  0  0  0  0  0  0
   86.5897   91.8266  -49.4840 C   0  0  0  1  0  3  0  0  0  0  0  0
   87.4374   91.6018  -50.5671 C   0  0  0  1  0  3  0  0  0  0  0  0
   92.2851  102.2943  -42.7257 C   0  0  0  1  0  4  0  0  0  0  0  0
   90.9361   96.9784  -42.6425 O   0  0  0  1  0  2  0  0  0  0  0  0
   92.1506   94.5227  -40.9593 I   0  0  0  1  0  1  0  0  0  0  0  0
   89.3990   91.0031  -51.2007 H   0  0  0  1  0  1  0  0  0  0  0  0
   91.1615   90.3461  -49.5982 H   0  0  0  1  0  1  0  0  0  0  0  0
   90.6653   98.1804  -43.7173 H   0  0  0  1  0  1  0  0  0  0  0  0
   91.5722   96.8791  -41.9433 H   0  0  0  1  0  1  0  0  0  0  0  0
   91.8392   92.5257  -43.3392 H   0  0  0  1  0  1  0  0  0  0  0  0
   90.0975   97.2069  -46.4176 H   0  0  0  1  0  1  0  0  0  0  0  0
   88.8204   97.1614  -45.1550 H   0  0  0  1  0  1  0  0  0  0  0  0
   91.3562  103.0907  -44.3880 H   0  0  0  1  0  1  0  0  0  0  0  0
   88.6097   99.2655  -44.2070 H   0  0  0  1  0  1  0  0  0  0  0  0
   89.3242   99.8170  -45.7598 H   0  0  0  1  0  1  0  0  0  0  0  0
   90.1626   94.7931  -46.6048 H   0  0  0  1  0  1  0  0  0  0  0  0
   92.0797   89.8695  -47.5638 H   0  0  0  1  0  1  0  0  0  0  0  0
   90.4257   89.4448  -47.0082 H   0  0  0  1  0  1  0  0  0  0  0  0
   88.7177   90.9883  -46.9765 H   0  0  0  1  0  1  0  0  0  0  0  0
   90.4412  100.4594  -42.9733 H   0  0  0  1  0  1  0  0  0  0  0  0
   89.4803  101.5835  -43.9926 H   0  0  0  1  0  1  0  0  0  0  0  0
   86.4040   91.7693  -47.3455 H   0  0  0  1  0  1  0  0  0  0  0  0
   91.1612  101.2321  -45.8580 H   0  0  0  1  0  1  0  0  0  0  0  0
   90.6730  100.9123  -42.3742 H   0  0  0  1  0  1  0  0  0  0  0  0
   90.2300  102.6423  -42.1876 H   0  0  0  1  0  1  0  0  0  0  0  0
   91.2083  101.8238  -40.9213 H   0  0  0  1  0  1  0  0  0  0  0  0
   94.1859  102.5248  -44.3644 H   0  0  0  1  0  1  0  0  0  0  0  0
   93.2921  103.9451  -45.0068 H   0  0  0  1  0  1  0  0  0  0  0  0
   94.2942  102.6095  -46.8368 H   0  0  0  1  0  1  0  0  0  0  0  0
   92.5003  102.5796  -46.9176 H   0  0  0  1  0  1  0  0  0  0  0  0
   93.3940  101.1599  -46.2756 H   0  0  0  1  0  1  0  0  0  0  0  0
   92.6877   99.7454  -43.6392 H   0  0  0  1  0  1  0  0  0  0  0  0
   93.3719  100.2075  -45.2346 H   0  0  0  1  0  1  0  0  0  0  0  0
   91.6686   98.8909  -46.3956 H   0  0  0  1  0  1  0  0  0  0  0  0
   92.5007   97.8517  -45.1886 H   0  0  0  1  0  1  0  0  0  0  0  0
   85.5754   92.1729  -49.6454 H   0  0  0  1  0  1  0  0  0  0  0  0
   87.0819   91.7665  -51.5781 H   0  0  0  1  0  1  0  0  0  0  0  0
   92.6106  103.2801  -42.3611 H   0  0  0  1  0  1  0  0  0  0  0  0
   93.0694  101.5503  -42.5204 H   0  0  0  1  0  1  0  0  0  0  0  0
  1 14  1  0  0  0  0
  1 15  1  0  0  0  0
  1 32  1  0  0  0  0
  2  8  1  0  0  0  0
  2  9  1  0  0  0  0
  2 25  1  0  0  0  0
  2 33  1  0  0  0  0
  3 20  1  0  0  0  0
  3 22  1  0  0  0  0
  3 28  1  0  0  0  0
  3 38  1  0  0  0  0
  4 15  2  0  0  0  0
  4 27  1  0  0  0  0
  4 31  1  0  0  0  0
  5  7  2  0  0  0  0
  5 10  1  0  0  0  0
  5 11  1  0  0  0  0
  6  8  1  0  0  0  0
  6 10  2  0  0  0  0
  6 16  1  0  0  0  0
  7 12  1  0  0  0  0
  7 35  1  0  0  0  0
  8 36  1  0  0  0  0
  8 37  1  0  0  0  0
  9 18  1  0  0  0  0
  9 39  1  0  0  0  0
  9 40  1  0  0  0  0
 10 41  1  0  0  0  0
 11 13  3  0  0  0  0
 12 16  2  0  0  0  0
 12 30  1  0  0  0  0
 13 14  1  0  0  0  0
 14 42  1  0  0  0  0
 14 43  1  0  0  0  0
 15 17  1  0  0  0  0
 16 29  1  0  0  0  0
 17 19  2  0  0  0  0
 17 44  1  0  0  0  0
 18 20  1  0  0  0  0
 18 45  1  0  0  0  0
 18 46  1  0  0  0  0
 19 26  1  0  0  0  0
 19 47  1  0  0  0  0
 20 24  1  0  0  0  0
 20 48  1  0  0  0  0
 21 28  1  0  0  0  0
 21 49  1  0  0  0  0
 21 50  1  0  0  0  0
 21 51  1  0  0  0  0
 22 23  1  0  0  0  0
 22 52  1  0  0  0  0
 22 53  1  0  0  0  0
 23 54  1  0  0  0  0
 23 55  1  0  0  0  0
 23 56  1  0  0  0  0
 24 25  1  0  0  0  0
 24 57  1  0  0  0  0
 24 58  1  0  0  0  0
 25 59  1  0  0  0  0
 25 60  1  0  0  0  0
 26 27  2  0  0  0  0
 26 61  1  0  0  0  0
 27 62  1  0  0  0  0
 28 63  1  0  0  0  0
 28 64  1  0  0  0  0
 29 34  1  0  0  0  0
M  END
> <ConfScore>
-0.397704 

$$$$
4agq


 64 66  0  0  0  0  0  0  0  0999 V2000
   90.5295   90.4910  -48.7983 N   0  0  0  1  0  3  0  0  0  0  0  0
   90.4980   98.3810  -44.6910 N   0  3  0  1  0  4  0  0  0  0  0  0
   92.0470  102.3711  -44.2402 N   0  3  0  1  0  4  0  0  0  0  0  0
   88.2744   91.1390  -48.0730 C   0  0  0  1  0  3  0  0  0  0  0  0
   91.0040   93.5374  -45.0640 C   0  0  0  1  0  3  0  0  0  0  0  0
   90.4948   95.8988  -44.7838 C   0  0  0  1  0  3  0  0  0  0  0  0
   91.4677   93.4593  -43.7444 C   0  0  0  1  0  3  0  0  0  0  0  0
   89.9050   97.1660  -45.3350 C   0  0  0  1  0  4  0  0  0  0  0  0
   89.5430   99.5450  -44.7170 C   0  0  0  1  0  4  0  0  0  0  0  0
   90.5195   94.7482  -45.5821 C   0  0  0  1  0  3  0  0  0  0  0  0
   91.0247   92.3729  -45.8904 C   0  0  0  1  0  2  0  0  0  0  0  0
   91.4378   94.6248  -42.9613 C   0  0  0  1  0  3  0  0  0  0  0  0
   91.0206   91.4234  -46.6266 C   0  0  0  1  0  2  0  0  0  0  0  0
   91.0417   90.2253  -47.4774 C   0  0  0  1  0  4  0  0  0  0  0  0
   89.2399   90.9284  -49.0617 C   0  0  0  1  0  3  0  0  0  0  0  0
   90.9571   95.8573  -43.4420 C   0  0  0  1  0  3  0  0  0  0  0  0
   88.8633   91.1734  -50.3900 C   0  0  0  1  0  3  0  0  0  0  0  0
   90.1750  100.7310  -44.0050 C   0  0  0  1  0  4  0  0  0  0  0  0
   87.5757   91.6146  -50.7150 C   0  0  0  1  0  3  0  0  0  0  0  0
   91.4300  101.0810  -44.8020 C   0  0  0  1  0  4  0  0  0  0  0  0
   91.0112  101.8901  -42.0016 C   0  0  0  1  0  4  0  0  0  0  0  0
   93.3055  102.8464  -44.9401 C   0  0  0  1  0  4  0  0  0  0  0  0
   93.3786  102.2589  -46.3388 C   0  0  0  1  0  4  0  0  0  0  0  0
   92.4510   99.9400  -44.6950 C   0  0  0  1  0  4  0  0  0  0  0  0
   91.8210   98.7070  -45.3220 C   0  0  0  1  0  4  0  0  0  0  0  0
   86.6335   91.8181  -49.7131 C   0  0  0  1  0  3  0  0  0  0  0  0
   86.9858   91.5844  -48.3851 C   0  0  0  1  0  3  0  0  0  0  0  0
   92.2851  102.2943  -42.7257 C   0  0  0  1  0  4  0  0  0  0  0  0
   90.9361   96.9784  -42.6425 O   0  0  0  1  0  2  0  0  0  0  0  0
   92.1506   94.5227  -40.9593 I   0  0  0  1  0  1  0  0  0  0  0  0
   88.5309   90.9513  -47.0361 H   0  0  0  1  0  1  0  0  0  0  0  0
   91.1615   90.3461  -49.5982 H   0  0  0  1  0  1  0  0  0  0  0  0
   90.6653   98.1804  -43.7173 H   0  0  0  1  0  1  0  0  0  0  0  0
   91.5722   96.8791  -41.9433 H   0  0  0  1  0  1  0  0  0  0  0  0
   91.8392   92.5257  -43.3392 H   0  0  0  1  0  1  0  0  0  0  0  0
   90.0975   97.2069  -46.4176 H   0  0  0  1  0  1  0  0  0  0  0  0
   88.8204   97.1614  -45.1550 H   0  0  0  1  0  1  0  0  0  0  0  0
   91.3562  103.0907  -44.3880 H   0  0  0  1  0  1  0  0  0  0  0  0
   88.6097   99.2655  -44.2070 H   0  0  0  1  0  1  0  0  0  0  0  0
   89.3242   99.8170  -45.7598 H   0  0  0  1  0  1  0  0  0  0  0  0
   90.1626   94.7931  -46.6048 H   0  0  0  1  0  1  0  0  0  0  0  0
   92.0797   89.8695  -47.5638 H   0  0  0  1  0  1  0  0  0  0  0  0
   90.4257   89.4448  -47.0082 H   0  0  0  1  0  1  0  0  0  0  0  0
   89.5866   91.0179  -51.1821 H   0  0  0  1  0  1  0  0  0  0  0  0
   90.4412  100.4594  -42.9733 H   0  0  0  1  0  1  0  0  0  0  0  0
   89.4803  101.5835  -43.9926 H   0  0  0  1  0  1  0  0  0  0  0  0
   87.3129   91.7972  -51.7500 H   0  0  0  1  0  1  0  0  0  0  0  0
   91.1612  101.2321  -45.8580 H   0  0  0  1  0  1  0  0  0  0  0  0
   90.6730  100.9123  -42.3742 H   0  0  0  1  0  1  0  0  0  0  0  0
   90.2300  102.6423  -42.1876 H   0  0  0  1  0  1  0  0  0  0  0  0
   91.2083  101.8238  -40.9213 H   0  0  0  1  0  1  0  0  0  0  0  0
   94.1859  102.5248  -44.3644 H   0  0  0  1  0  1  0  0  0  0  0  0
   93.2921  103.9451  -45.0068 H   0  0  0  1  0  1  0  0  0  0  0  0
   94.2942  102.6095  -46.8368 H   0  0  0  1  0  1  0  0  0  0  0  0
   92.5003  102.5796  -46.9176 H   0  0  0  1  0  1  0  0  0  0  0  0
   93.3940  101.1599  -46.2756 H   0  0  0  1  0  1  0  0  0  0  0  0
   92.6877   99.7454  -43.6392 H   0  0  0  1  0  1  0  0  0  0  0  0
   93.3719  100.2075  -45.2346 H   0  0  0  1  0  1  0  0  0  0  0  0
   91.6686   98.8909  -46.3956 H   0  0  0  1  0  1  0  0  0  0  0  0
   92.5007   97.8517  -45.1886 H   0  0  0  1  0  1  0  0  0  0  0  0
   85.6347   92.1565  -49.9630 H   0  0  0  1  0  1  0  0  0  0  0  0
   86.2619   91.7474  -47.5946 H   0  0  0  1  0  1  0  0  0  0  0  0
   92.6106  103.2801  -42.3611 H   0  0  0  1  0  1  0  0  0  0  0  0
   93.0694  101.5503  -42.5204 H   0  0  0  1  0  1  0  0  0  0  0  0
  1 14  1  0  0  0  0
  1 15  1  0  0  0  0
  1 32  1  0  0  0  0
  2  8  1  0  0  0  0
  2  9  1  0  0  0  0
  2 25  1  0  0  0  0
  2 33  1  0  0  0  0
  3 20  1  0  0  0  0
  3 22  1  0  0  0  0
  3 28  1  0  0  0  0
  3 38  1  0  0  0  0
  4 15  2  0  0  0  0
  4 27  1  0  0  0  0
  4 31  1  0  0  0  0
  5  7  2  0  0  0  0
  5 10  1  0  0  0  0
  5 11  1  0  0  0  0
  6  8  1  0  0  0  0
  6 10  2  0  0  0  0
  6 16  1  0  0  0  0
  7 12  1  0  0  0  0
  7 35  1  0  0  0  0
  8 36  1  0  0  0  0
  8 37  1  0  0  0  0
  9 18  1  0  0  0  0
  9 39  1  0  0  0  0
  9 40  1  0  0  0  0
 10 41  1  0  0  0  0
 11 13  3  0  0  0  0
 12 16  2  0  0  0  0
 12 30  1  0  0  0  0
 13 14  1  0  0  0  0
 14 42  1  0  0  0  0
 14 43  1  0  0  0  0
 15 17  1  0  0  0  0
 16 29  1  0  0  0  0
 17 19  2  0  0  0  0
 17 44  1  0  0  0  0
 18 20  1  0  0  0  0
 18 45  1  0  0  0  0
 18 46  1  0  0  0  0
 19 26  1  0  0  0  0
 19 47  1  0  0  0  0
 20 24  1  0  0  0  0
 20 48  1  0  0  0  0
 21 28  1  0  0  0  0
 21 49  1  0  0  0  0
 21 50  1  0  0  0  0
 21 51  1  0  0  0  0
 22 23  1  0  0  0  0
 22 52  1  0  0  0  0
 22 53  1  0  0  0  0
 23 54  1  0  0  0  0
 23 55  1  0  0  0  0
 23 56  1  0  0  0  0
 24 25  1  0  0  0  0
 24 57  1  0  0  0  0
 24 58  1  0  0  0  0
 25 59  1  0  0  0  0
 25 60  1  0  0  0  0
 26 27  2  0  0  0  0
 26 61  1  0  0  0  0
 27 62  1  0  0  0  0
 28 63  1  0  0  0  0
 28 64  1  0  0  0  0
 29 34  1  0  0  0  0
M  END
> <ConfScore>
-0.397704 

$$$$
4agq


 64 66  0  0  0  0  0  0  0  0999 V2000
   90.3515   89.8779  -47.2388 N   0  0  0  1  0  3  0  0  0  0  0  0
   90.4980   98.3810  -44.6910 N   0  3  0  1  0  4  0  0  0  0  0  0
   92.0470  102.3711  -44.2402 N   0  3  0  1  0  4  0  0  0  0  0  0
   91.6574   90.1113  -49.3056 C   0  0  0  1  0  3  0  0  0  0  0  0
   89.9732   93.5645  -44.1216 C   0  0  0  1  0  3  0  0  0  0  0  0
   89.9319   95.9782  -44.4153 C   0  0  0  1  0  3  0  0  0  0  0  0
   89.8474   93.7101  -42.7340 C   0  0  0  1  0  3  0  0  0  0  0  0
   89.9050   97.1660  -45.3350 C   0  0  0  1  0  4  0  0  0  0  0  0
   89.5430   99.5450  -44.7170 C   0  0  0  1  0  4  0  0  0  0  0  0
   90.0145   94.6899  -44.9587 C   0  0  0  1  0  3  0  0  0  0  0  0
   90.0603   92.2572  -44.6900 C   0  0  0  1  0  2  0  0  0  0  0  0
   89.7694   95.0102  -42.2084 C   0  0  0  1  0  3  0  0  0  0  0  0
   90.1373   91.1808  -45.2180 C   0  0  0  1  0  2  0  0  0  0  0  0
   90.2269   89.8357  -45.8033 C   0  0  0  1  0  4  0  0  0  0  0  0
   91.5448   90.0924  -47.9124 C   0  0  0  1  0  3  0  0  0  0  0  0
   89.8042   96.1642  -43.0135 C   0  0  0  1  0  3  0  0  0  0  0  0
   92.7167   90.2985  -47.1703 C   0  0  0  1  0  3  0  0  0  0  0  0
   90.1750  100.7310  -44.0050 C   0  0  0  1  0  4  0  0  0  0  0  0
   93.9487   90.5185  -47.7962 C   0  0  0  1  0  3  0  0  0  0  0  0
   91.4300  101.0810  -44.8020 C   0  0  0  1  0  4  0  0  0  0  0  0
   92.8850  103.5853  -42.2058 C   0  0  0  1  0  4  0  0  0  0  0  0
   93.2445  102.9032  -45.0035 C   0  0  0  1  0  4  0  0  0  0  0  0
   92.8475  103.2363  -46.4312 C   0  0  0  1  0  4  0  0  0  0  0  0
   92.4510   99.9400  -44.6950 C   0  0  0  1  0  4  0  0  0  0  0  0
   91.8210   98.7070  -45.3220 C   0  0  0  1  0  4  0  0  0  0  0  0
   94.0343   90.5342  -49.1837 C   0  0  0  1  0  3  0  0  0  0  0  0
   92.8824   90.3350  -49.9424 C   0  0  0  1  0  3  0  0  0  0  0  0
   92.3843  102.2562  -42.7471 C   0  0  0  1  0  4  0  0  0  0  0  0
   89.7179   97.4237  -42.4633 O   0  0  0  1  0  2  0  0  0  0  0  0
   89.5906   95.2457  -40.1014 I   0  0  0  1  0  1  0  0  0  0  0  0
   90.7713   89.9475  -49.9091 H   0  0  0  1  0  1  0  0  0  0  0  0
   89.4996   89.7406  -47.8004 H   0  0  0  1  0  1  0  0  0  0  0  0
   90.6653   98.1804  -43.7173 H   0  0  0  1  0  1  0  0  0  0  0  0
   89.9864   97.3890  -41.5522 H   0  0  0  1  0  1  0  0  0  0  0  0
   89.8113   92.8438  -42.0843 H   0  0  0  1  0  1  0  0  0  0  0  0
   90.4802   96.9271  -46.2421 H   0  0  0  1  0  1  0  0  0  0  0  0
   88.8619   97.3812  -45.6079 H   0  0  0  1  0  1  0  0  0  0  0  0
   91.3289  103.0745  -44.3209 H   0  0  0  1  0  1  0  0  0  0  0  0
   88.6097   99.2655  -44.2070 H   0  0  0  1  0  1  0  0  0  0  0  0
   89.3242   99.8170  -45.7598 H   0  0  0  1  0  1  0  0  0  0  0  0
   90.1107   94.5617  -46.0309 H   0  0  0  1  0  1  0  0  0  0  0  0
   91.1074   89.3246  -45.3851 H   0  0  0  1  0  1  0  0  0  0  0  0
   89.3193   89.2729  -45.5422 H   0  0  0  1  0  1  0  0  0  0  0  0
   92.6659   90.2877  -46.0877 H   0  0  0  1  0  1  0  0  0  0  0  0
   90.4412  100.4594  -42.9733 H   0  0  0  1  0  1  0  0  0  0  0  0
   89.4803  101.5835  -43.9926 H   0  0  0  1  0  1  0  0  0  0  0  0
   94.8377   90.6762  -47.1974 H   0  0  0  1  0  1  0  0  0  0  0  0
   91.1612  101.2321  -45.8580 H   0  0  0  1  0  1  0  0  0  0  0  0
   92.1134  104.3548  -42.3539 H   0  0  0  1  0  1  0  0  0  0  0  0
   93.8003  103.8776  -42.7421 H   0  0  0  1  0  1  0  0  0  0  0  0
   93.1036  103.4856  -41.1322 H   0  0  0  1  0  1  0  0  0  0  0  0
   94.0370  102.1405  -45.0152 H   0  0  0  1  0  1  0  0  0  0  0  0
   93.6175  103.8125  -44.5076 H   0  0  0  1  0  1  0  0  0  0  0  0
   93.7224  103.6207  -46.9753 H   0  0  0  1  0  1  0  0  0  0  0  0
   92.0560  103.9996  -46.4231 H   0  0  0  1  0  1  0  0  0  0  0  0
   92.4755  102.3284  -46.9307 H   0  0  0  1  0  1  0  0  0  0  0  0
   92.6877   99.7454  -43.6392 H   0  0  0  1  0  1  0  0  0  0  0  0
   93.3719  100.2075  -45.2346 H   0  0  0  1  0  1  0  0  0  0  0  0
   91.6686   98.8909  -46.3956 H   0  0  0  1  0  1  0  0  0  0  0  0
   92.5007   97.8517  -45.1886 H   0  0  0  1  0  1  0  0  0  0  0  0
   94.9883   90.7010  -49.6704 H   0  0  0  1  0  1  0  0  0  0  0  0
   92.9356   90.3530  -51.0252 H   0  0  0  1  0  1  0  0  0  0  0  0
   93.1656  101.4934  -42.6113 H   0  0  0  1  0  1  0  0  0  0  0  0
   91.4808  101.9578  -42.1944 H   0  0  0  1  0  1  0  0  0  0  0  0
  1 14  1  0  0  0  0
  1 15  1  0  0  0  0
  1 32  1  0  0  0  0
  2  8  1  0  0  0  0
  2  9  1  0  0  0  0
  2 25  1  0  0  0  0
  2 33  1  0  0  0  0
  3 20  1  0  0  0  0
  3 22  1  0  0  0  0
  3 28  1  0  0  0  0
  3 38  1  0  0  0  0
  4 15  2  0  0  0  0
  4 27  1  0  0  0  0
  4 31  1  0  0  0  0
  5  7  2  0  0  0  0
  5 10  1  0  0  0  0
  5 11  1  0  0  0  0
  6  8  1  0  0  0  0
  6 10  2  0  0  0  0
  6 16  1  0  0  0  0
  7 12  1  0  0  0  0
  7 35  1  0  0  0  0
  8 36  1  0  0  0  0
  8 37  1  0  0  0  0
  9 18  1  0  0  0  0
  9 39  1  0  0  0  0
  9 40  1  0  0  0  0
 10 41  1  0  0  0  0
 11 13  3  0  0  0  0
 12 16  2  0  0  0  0
 12 30  1  0  0  0  0
 13 14  1  0  0  0  0
 14 42  1  0  0  0  0
 14 43  1  0  0  0  0
 15 17  1  0  0  0  0
 16 29  1  0  0  0  0
 17 19  2  0  0  0  0
 17 44  1  0  0  0  0
 18 20  1  0  0  0  0
 18 45  1  0  0  0  0
 18 46  1  0  0  0  0
 19 26  1  0  0  0  0
 19 47  1  0  0  0  0
 20 24  1  0  0  0  0
 20 48  1  0  0  0  0
 21 28  1  0  0  0  0
 21 49  1  0  0  0  0
 21 50  1  0  0  0  0
 21 51  1  0  0  0  0
 22 23  1  0  0  0  0
 22 52  1  0  0  0  0
 22 53  1  0  0  0  0
 23 54  1  0  0  0  0
 23 55  1  0  0  0  0
 23 56  1  0  0  0  0
 24 25  1  0  0  0  0
 24 57  1  0  0  0  0
 24 58  1  0  0  0  0
 25 59  1  0  0  0  0
 25 60  1  0  0  0  0
 26 27  2  0  0  0  0
 26 61  1  0  0  0  0
 27 62  1  0  0  0  0
 28 63  1  0  0  0  0
 28 64  1  0  0  0  0
 29 34  1  0  0  0  0
M  END
> <ConfScore>
-0.396924 

$$$$
4agq


 64 66  0  0  0  0  0  0  0  0999 V2000
    1.5506    8.7601   29.0461 N   0  0  0  1  0  3  0  0  0  0  0  0
    5.4320    2.2550   28.3390 N   0  3  0  1  0  4  0  0  0  0  0  0
    4.8039   -1.3070   27.7628 N   0  3  0  1  0  4  0  0  0  0  0  0
    1.9245    9.0596   26.6374 C   0  0  0  1  0  3  0  0  0  0  0  0
    4.7793    5.7382   31.0196 C   0  0  0  1  0  3  0  0  0  0  0  0
    6.0741    3.9199   30.1561 C   0  0  0  1  0  3  0  0  0  0  0  0
    5.3285    5.5260   32.2650 C   0  0  0  1  0  3  0  0  0  0  0  0
    6.4640    3.0610   28.9950 C   0  0  0  1  0  4  0  0  0  0  0  0
    6.0520    1.4770   27.2550 C   0  0  0  1  0  4  0  0  0  0  0  0
    5.1656    4.9483   29.9650 C   0  0  0  1  0  3  0  0  0  0  0  0
    3.8143    6.7731   30.8266 C   0  0  0  1  0  2  0  0  0  0  0  0
    6.2636    4.5164   32.4573 C   0  0  0  1  0  3  0  0  0  0  0  0
    2.9996    7.6293   30.6111 C   0  0  0  1  0  2  0  0  0  0  0  0
    2.0065    8.6942   30.4121 C   0  0  0  1  0  4  0  0  0  0  0  0
    2.3742    9.0179   27.9603 C   0  0  0  1  0  3  0  0  0  0  0  0
    6.6415    3.7133   31.4023 C   0  0  0  1  0  3  0  0  0  0  0  0
    3.7397    9.2468   28.1822 C   0  0  0  1  0  3  0  0  0  0  0  0
    4.9600    0.8100   26.4490 C   0  0  0  1  0  4  0  0  0  0  0  0
    4.6176    9.5105   27.1250 C   0  0  0  1  0  3  0  0  0  0  0  0
    4.0370   -0.0500   27.3240 C   0  0  0  1  0  4  0  0  0  0  0  0
    6.5530   -2.2816   29.2815 C   0  0  0  1  0  4  0  0  0  0  0  0
    3.9398   -2.4867   28.1644 C   0  0  0  1  0  4  0  0  0  0  0  0
    3.0818   -2.9286   26.9916 C   0  0  0  1  0  4  0  0  0  0  0  0
    3.5580    0.6920   28.5700 C   0  0  0  1  0  4  0  0  0  0  0  0
    4.7240    1.3610   29.2750 C   0  0  0  1  0  4  0  0  0  0  0  0
    4.1456    9.5481   25.8179 C   0  0  0  1  0  3  0  0  0  0  0  0
    2.7915    9.3269   25.5730 C   0  0  0  1  0  3  0  0  0  0  0  0
    5.8324   -1.0103   28.8630 C   0  0  0  1  0  4  0  0  0  0  0  0
    7.5735    2.7162   31.5858 O   0  0  0  1  0  2  0  0  0  0  0  0
    7.1137    4.2092   34.3833 I   0  0  0  1  0  1  0  0  0  0  0  0
    0.8753    8.8791   26.4305 H   0  0  0  1  0  1  0  0  0  0  0  0
    0.5487    8.6065   28.8648 H   0  0  0  1  0  1  0  0  0  0  0  0
    4.7370    2.8836   27.9673 H   0  0  0  1  0  1  0  0  0  0  0  0
    8.3742    3.0930   31.9328 H   0  0  0  1  0  1  0  0  0  0  0  0
    5.0297    6.1498   33.0990 H   0  0  0  1  0  1  0  0  0  0  0  0
    6.8910    3.7259   28.2293 H   0  0  0  1  0  1  0  0  0  0  0  0
    7.2385    2.3670   29.3516 H   0  0  0  1  0  1  0  0  0  0  0  0
    5.3251   -1.6052   26.9527 H   0  0  0  1  0  1  0  0  0  0  0  0
    6.7160    0.7116   27.6824 H   0  0  0  1  0  1  0  0  0  0  0  0
    6.6342    2.1468   26.6055 H   0  0  0  1  0  1  0  0  0  0  0  0
    4.7574    5.1304   28.9773 H   0  0  0  1  0  1  0  0  0  0  0  0
    1.1425    8.5006   31.0659 H   0  0  0  1  0  1  0  0  0  0  0  0
    2.4601    9.6587   30.6817 H   0  0  0  1  0  1  0  0  0  0  0  0
    4.1227    9.2193   29.1958 H   0  0  0  1  0  1  0  0  0  0  0  0
    5.4245    0.1680   25.6867 H   0  0  0  1  0  1  0  0  0  0  0  0
    4.3579    1.5876   25.9568 H   0  0  0  1  0  1  0  0  0  0  0  0
    5.6678    9.6850   27.3262 H   0  0  0  1  0  1  0  0  0  0  0  0
    3.1597   -0.3441   26.7290 H   0  0  0  1  0  1  0  0  0  0  0  0
    7.0588   -2.7197   28.4087 H   0  0  0  1  0  1  0  0  0  0  0  0
    5.8230   -3.0018   29.6804 H   0  0  0  1  0  1  0  0  0  0  0  0
    7.2967   -2.0439   30.0565 H   0  0  0  1  0  1  0  0  0  0  0  0
    3.2885   -2.1930   29.0009 H   0  0  0  1  0  1  0  0  0  0  0  0
    4.5858   -3.3211   28.4778 H   0  0  0  1  0  1  0  0  0  0  0  0
    2.4596   -3.7835   27.2935 H   0  0  0  1  0  1  0  0  0  0  0  0
    3.7299   -3.2241   26.1539 H   0  0  0  1  0  1  0  0  0  0  0  0
    2.4330   -2.0967   26.6768 H   0  0  0  1  0  1  0  0  0  0  0  0
    3.0835   -0.0237   29.2565 H   0  0  0  1  0  1  0  0  0  0  0  0
    2.8259    1.4587   28.2750 H   0  0  0  1  0  1  0  0  0  0  0  0
    4.3473    1.9482   30.1252 H   0  0  0  1  0  1  0  0  0  0  0  0
    5.4199    0.5905   29.6402 H   0  0  0  1  0  1  0  0  0  0  0  0
    4.8245    9.7488   24.9973 H   0  0  0  1  0  1  0  0  0  0  0  0
    2.4105    9.3617   24.5585 H   0  0  0  1  0  1  0  0  0  0  0  0
    5.3149   -0.5846   29.7357 H   0  0  0  1  0  1  0  0  0  0  0  0
    6.5684   -0.2855   28.4838 H   0  0  0  1  0  1  0  0  0  0  0  0
  1 14  1  0  0  0  0
  1 15  1  0  0  0  0
  1 32  1  0  0  0  0
  2  8  1  0  0  0  0
  2  9  1  0  0  0  0
  2 25  1  0  0  0  0
  2 33  1  0  0  0  0
  3 20  1  0  0  0  0
  3 22  1  0  0  0  0
  3 28  1  0  0  0  0
  3 38  1  0  0  0  0
  4 15  2  0  0  0  0
  4 27  1  0  0  0  0
  4 31  1  0  0  0  0
  5  7  2  0  0  0  0
  5 10  1  0  0  0  0
  5 11  1  0  0  0  0
  6  8  1  0  0  0  0
  6 10  2  0  0  0  0
  6 16  1  0  0  0  0
  7 12  1  0  0  0  0
  7 35  1  0  0  0  0
  8 36  1  0  0  0  0
  8 37  1  0  0  0  0
  9 18  1  0  0  0  0
  9 39  1  0  0  0  0
  9 40  1  0  0  0  0
 10 41  1  0  0  0  0
 11 13  3  0  0  0  0
 12 16  2  0  0  0  0
 12 30  1  0  0  0  0
 13 14  1  0  0  0  0
 14 42  1  0  0  0  0
 14 43  1  0  0  0  0
 15 17  1  0  0  0  0
 16 29  1  0  0  0  0
 17 19  2  0  0  0  0
 17 44  1  0  0  0  0
 18 20  1  0  0  0  0
 18 45  1  0  0  0  0
 18 46  1  0  0  0  0
 19 26  1  0  0  0  0
 19 47  1  0  0  0  0
 20 24  1  0  0  0  0
 20 48  1  0  0  0  0
 21 28  1  0  0  0  0
 21 49  1  0  0  0  0
 21 50  1  0  0  0  0
 21 51  1  0  0  0  0
 22 23  1  0  0  0  0
 22 52  1  0  0  0  0
 22 53  1  0  0  0  0
 23 54  1  0  0  0  0
 23 55  1  0  0  0  0
 23 56  1  0  0  0  0
 24 25  1  0  0  0  0
 24 57  1  0  0  0  0
 24 58  1  0  0  0  0
 25 59  1  0  0  0  0
 25 60  1  0  0  0  0
 26 27  2  0  0  0  0
 26 61  1  0  0  0  0
 27 62  1  0  0  0  0
 28 63  1  0  0  0  0
 28 64  1  0  0  0  0
 29 34  1  0  0  0  0
M  END
> <ConfScore>
-0.393157 

$$$$
4agq


 64 66  0  0  0  0  0  0  0  0999 V2000
   21.7859    2.1361   -0.8253 N   0  0  0  1  0  3  0  0  0  0  0  0
   24.4330    4.1140    6.3520 N   0  3  0  1  0  4  0  0  0  0  0  0
   25.1980    0.4547    8.4978 N   0  3  0  1  0  4  0  0  0  0  0  0
   23.5314    3.8276   -1.1768 C   0  0  0  1  0  3  0  0  0  0  0  0
   21.6661    5.1780    2.9408 C   0  0  0  1  0  3  0  0  0  0  0  0
   23.2165    5.5841    4.7666 C   0  0  0  1  0  3  0  0  0  0  0  0
   20.7888    6.1331    3.4729 C   0  0  0  1  0  3  0  0  0  0  0  0
   24.5480    5.2730    5.4500 C   0  0  0  1  0  4  0  0  0  0  0  0
   25.4840    4.1440    7.3870 C   0  0  0  1  0  4  0  0  0  0  0  0
   22.8714    4.8973    3.5948 C   0  0  0  1  0  3  0  0  0  0  0  0
   21.3299    4.4511    1.7583 C   0  0  0  1  0  2  0  0  0  0  0  0
   21.1196    6.8204    4.6492 C   0  0  0  1  0  3  0  0  0  0  0  0
   21.0954    3.8133    0.7676 C   0  0  0  1  0  2  0  0  0  0  0  0
   20.7498    3.0651   -0.4492 C   0  0  0  1  0  4  0  0  0  0  0  0
   23.0830    2.5038   -1.1509 C   0  0  0  1  0  3  0  0  0  0  0  0
   22.3338    6.5443    5.2837 C   0  0  0  1  0  3  0  0  0  0  0  0
   24.0101    1.5049   -1.4810 C   0  0  0  1  0  3  0  0  0  0  0  0
   25.3250    2.9490    8.3330 C   0  0  0  1  0  4  0  0  0  0  0  0
   25.3316    1.8173   -1.8188 C   0  0  0  1  0  3  0  0  0  0  0  0
   25.4480    1.6410    7.5540 C   0  0  0  1  0  4  0  0  0  0  0  0
   22.6927    0.5534    8.3262 C   0  0  0  1  0  4  0  0  0  0  0  0
   25.2803   -0.9155    7.8532 C   0  0  0  1  0  4  0  0  0  0  0  0
   24.1221   -1.1098    6.8900 C   0  0  0  1  0  4  0  0  0  0  0  0
   24.4130    1.6290    6.4330 C   0  0  0  1  0  4  0  0  0  0  0  0
   24.5460    2.8760    5.5510 C   0  0  0  1  0  4  0  0  0  0  0  0
   25.7537    3.1418   -1.8359 C   0  0  0  1  0  3  0  0  0  0  0  0
   24.8510    4.1517   -1.5082 C   0  0  0  1  0  3  0  0  0  0  0  0
   23.8806    0.5920    9.2737 C   0  0  0  1  0  4  0  0  0  0  0  0
   22.6820    7.1945    6.4466 O   0  0  0  1  0  2  0  0  0  0  0  0
   19.8234    8.2965    5.4662 I   0  0  0  1  0  1  0  0  0  0  0  0
   22.8374    4.6250   -0.9342 H   0  0  0  1  0  1  0  0  0  0  0  0
   21.5475    1.1349   -0.8549 H   0  0  0  1  0  1  0  0  0  0  0  0
   23.5397    4.1450    6.8182 H   0  0  0  1  0  1  0  0  0  0  0  0
   21.9981    7.8122    6.6795 H   0  0  0  1  0  1  0  0  0  0  0  0
   19.8502    6.3413    2.9733 H   0  0  0  1  0  1  0  0  0  0  0  0
   25.3025    5.0533    4.6798 H   0  0  0  1  0  1  0  0  0  0  0  0
   24.8637    6.1498    6.0334 H   0  0  0  1  0  1  0  0  0  0  0  0
   25.9399    0.4877    9.1799 H   0  0  0  1  0  1  0  0  0  0  0  0
   25.4009    5.0772    7.9628 H   0  0  0  1  0  1  0  0  0  0  0  0
   26.4711    4.0970    6.9045 H   0  0  0  1  0  1  0  0  0  0  0  0
   23.5412    4.1453    3.1933 H   0  0  0  1  0  1  0  0  0  0  0  0
   19.8191    2.5057   -0.2697 H   0  0  0  1  0  1  0  0  0  0  0  0
   20.5953    3.7769   -1.2728 H   0  0  0  1  0  1  0  0  0  0  0  0
   23.6952    0.4678   -1.4734 H   0  0  0  1  0  1  0  0  0  0  0  0
   24.3367    2.9945    8.8128 H   0  0  0  1  0  1  0  0  0  0  0  0
   26.1091    2.9884    9.1031 H   0  0  0  1  0  1  0  0  0  0  0  0
   26.0267    1.0246   -2.0682 H   0  0  0  1  0  1  0  0  0  0  0  0
   26.4575    1.5618    7.1241 H   0  0  0  1  0  1  0  0  0  0  0  0
   22.6988   -0.3955    7.7702 H   0  0  0  1  0  1  0  0  0  0  0  0
   22.7619    1.3926    7.6179 H   0  0  0  1  0  1  0  0  0  0  0  0
   21.7598    0.6352    8.9035 H   0  0  0  1  0  1  0  0  0  0  0  0
   25.2368   -1.6887    8.6344 H   0  0  0  1  0  1  0  0  0  0  0  0
   26.2298   -1.0026    7.3032 H   0  0  0  1  0  1  0  0  0  0  0  0
   24.1912   -2.1056    6.4288 H   0  0  0  1  0  1  0  0  0  0  0  0
   24.1633   -0.3390    6.1068 H   0  0  0  1  0  1  0  0  0  0  0  0
   23.1706   -1.0250    7.4373 H   0  0  0  1  0  1  0  0  0  0  0  0
   23.4060    1.6058    6.8735 H   0  0  0  1  0  1  0  0  0  0  0  0
   24.5637    0.7322    5.8135 H   0  0  0  1  0  1  0  0  0  0  0  0
   25.5264    2.8597    5.0529 H   0  0  0  1  0  1  0  0  0  0  0  0
   23.7485    2.8655    4.7926 H   0  0  0  1  0  1  0  0  0  0  0  0
   26.7759    3.3861   -2.1006 H   0  0  0  1  0  1  0  0  0  0  0  0
   25.1710    5.1877   -1.5103 H   0  0  0  1  0  1  0  0  0  0  0  0
   23.8792    1.5495    9.8159 H   0  0  0  1  0  1  0  0  0  0  0  0
   23.7967   -0.2366    9.9929 H   0  0  0  1  0  1  0  0  0  0  0  0
  1 14  1  0  0  0  0
  1 15  1  0  0  0  0
  1 32  1  0  0  0  0
  2  8  1  0  0  0  0
  2  9  1  0  0  0  0
  2 25  1  0  0  0  0
  2 33  1  0  0  0  0
  3 20  1  0  0  0  0
  3 22  1  0  0  0  0
  3 28  1  0  0  0  0
  3 38  1  0  0  0  0
  4 15  2  0  0  0  0
  4 27  1  0  0  0  0
  4 31  1  0  0  0  0
  5  7  2  0  0  0  0
  5 10  1  0  0  0  0
  5 11  1  0  0  0  0
  6  8  1  0  0  0  0
  6 10  2  0  0  0  0
  6 16  1  0  0  0  0
  7 12  1  0  0  0  0
  7 35  1  0  0  0  0
  8 36  1  0  0  0  0
  8 37  1  0  0  0  0
  9 18  1  0  0  0  0
  9 39  1  0  0  0  0
  9 40  1  0  0  0  0
 10 41  1  0  0  0  0
 11 13  3  0  0  0  0
 12 16  2  0  0  0  0
 12 30  1  0  0  0  0
 13 14  1  0  0  0  0
 14 42  1  0  0  0  0
 14 43  1  0  0  0  0
 15 17  1  0  0  0  0
 16 29  1  0  0  0  0
 17 19  2  0  0  0  0
 17 44  1  0  0  0  0
 18 20  1  0  0  0  0
 18 45  1  0  0  0  0
 18 46  1  0  0  0  0
 19 26  1  0  0  0  0
 19 47  1  0  0  0  0
 20 24  1  0  0  0  0
 20 48  1  0  0  0  0
 21 28  1  0  0  0  0
 21 49  1  0  0  0  0
 21 50  1  0  0  0  0
 21 51  1  0  0  0  0
 22 23  1  0  0  0  0
 22 52  1  0  0  0  0
 22 53  1  0  0  0  0
 23 54  1  0  0  0  0
 23 55  1  0  0  0  0
 23 56  1  0  0  0  0
 24 25  1  0  0  0  0
 24 57  1  0  0  0  0
 24 58  1  0  0  0  0
 25 59  1  0  0  0  0
 25 60  1  0  0  0  0
 26 27  2  0  0  0  0
 26 61  1  0  0  0  0
 27 62  1  0  0  0  0
 28 63  1  0  0  0  0
 28 64  1  0  0  0  0
 29 34  1  0  0  0  0
M  END
> <ConfScore>
-0.390864 

$$$$
4agq


 64 66  0  0  0  0  0  0  0  0999 V2000
    9.2332    5.3001   21.6082 N   0  0  0  1  0  3  0  0  0  0  0  0
    5.4320    2.2550   28.3390 N   0  3  0  1  0  4  0  0  0  0  0  0
    4.8039   -1.3070   27.7628 N   0  3  0  1  0  4  0  0  0  0  0  0
   11.3107    6.5760   21.3125 C   0  0  0  1  0  3  0  0  0  0  0  0
    7.6405    5.2526   26.1812 C   0  0  0  1  0  3  0  0  0  0  0  0
    7.0363    4.2314   28.2597 C   0  0  0  1  0  3  0  0  0  0  0  0
    8.0838    6.3627   26.8658 C   0  0  0  1  0  3  0  0  0  0  0  0
    6.4640    3.0610   28.9950 C   0  0  0  1  0  4  0  0  0  0  0  0
    6.0520    1.4770   27.2550 C   0  0  0  1  0  4  0  0  0  0  0  0
    7.1352    4.1832   26.8787 C   0  0  0  1  0  3  0  0  0  0  0  0
    7.7060    5.2142   24.7551 C   0  0  0  1  0  2  0  0  0  0  0  0
    8.0164    6.4054   28.2530 C   0  0  0  1  0  3  0  0  0  0  0  0
    7.8157    5.1887   23.5590 C   0  0  0  1  0  2  0  0  0  0  0  0
    7.8835    5.1493   22.0914 C   0  0  0  1  0  4  0  0  0  0  0  0
   10.0096    6.4328   21.8030 C   0  0  0  1  0  3  0  0  0  0  0  0
    7.4960    5.3381   28.9536 C   0  0  0  1  0  3  0  0  0  0  0  0
    9.4780    7.5034   22.5361 C   0  0  0  1  0  3  0  0  0  0  0  0
    4.9600    0.8100   26.4490 C   0  0  0  1  0  4  0  0  0  0  0  0
   10.2158    8.6701   22.7651 C   0  0  0  1  0  3  0  0  0  0  0  0
    4.0370   -0.0500   27.3240 C   0  0  0  1  0  4  0  0  0  0  0  0
    2.8504   -2.8313   27.3433 C   0  0  0  1  0  4  0  0  0  0  0  0
    5.6938   -1.9269   26.7029 C   0  0  0  1  0  4  0  0  0  0  0  0
    6.3064   -3.2153   27.2239 C   0  0  0  1  0  4  0  0  0  0  0  0
    3.5580    0.6920   28.5700 C   0  0  0  1  0  4  0  0  0  0  0  0
    4.7240    1.3610   29.2750 C   0  0  0  1  0  4  0  0  0  0  0  0
   11.5077    8.7889   22.2652 C   0  0  0  1  0  3  0  0  0  0  0  0
   12.0562    7.7391   21.5307 C   0  0  0  1  0  3  0  0  0  0  0  0
    3.8803   -2.3755   28.3641 C   0  0  0  1  0  4  0  0  0  0  0  0
    7.4339    5.3723   30.3289 O   0  0  0  1  0  2  0  0  0  0  0  0
    8.7177    8.1210   29.2978 I   0  0  0  1  0  1  0  0  0  0  0  0
   11.7545    5.7632   20.7479 H   0  0  0  1  0  1  0  0  0  0  0  0
    9.6475    4.5167   21.0840 H   0  0  0  1  0  1  0  0  0  0  0  0
    4.7370    2.8836   27.9673 H   0  0  0  1  0  1  0  0  0  0  0  0
    6.5256    5.3236   30.6049 H   0  0  0  1  0  1  0  0  0  0  0  0
    8.4873    7.2070   26.3196 H   0  0  0  1  0  1  0  0  0  0  0  0
    7.3005    2.3863   29.2309 H   0  0  0  1  0  1  0  0  0  0  0  0
    6.0289    3.4464   29.9283 H   0  0  0  1  0  1  0  0  0  0  0  0
    5.4188   -1.0066   28.5035 H   0  0  0  1  0  1  0  0  0  0  0  0
    6.7160    0.7116   27.6824 H   0  0  0  1  0  1  0  0  0  0  0  0
    6.6342    2.1468   26.6055 H   0  0  0  1  0  1  0  0  0  0  0  0
    6.8119    3.2962   26.3457 H   0  0  0  1  0  1  0  0  0  0  0  0
    7.4876    4.1830   21.7437 H   0  0  0  1  0  1  0  0  0  0  0  0
    7.2677    5.9643   21.6848 H   0  0  0  1  0  1  0  0  0  0  0  0
    8.4725    7.4249   22.9334 H   0  0  0  1  0  1  0  0  0  0  0  0
    5.4245    0.1680   25.6867 H   0  0  0  1  0  1  0  0  0  0  0  0
    4.3579    1.5876   25.9568 H   0  0  0  1  0  1  0  0  0  0  0  0
    9.7790    9.4821   23.3340 H   0  0  0  1  0  1  0  0  0  0  0  0
    3.1597   -0.3441   26.7290 H   0  0  0  1  0  1  0  0  0  0  0  0
    3.3652   -3.2393   26.4613 H   0  0  0  1  0  1  0  0  0  0  0  0
    2.2306   -1.9740   27.0407 H   0  0  0  1  0  1  0  0  0  0  0  0
    2.2114   -3.6085   27.7883 H   0  0  0  1  0  1  0  0  0  0  0  0
    6.4970   -1.2214   26.4438 H   0  0  0  1  0  1  0  0  0  0  0  0
    5.0939   -2.1454   25.8062 H   0  0  0  1  0  1  0  0  0  0  0  0
    6.9494   -3.6560   26.4483 H   0  0  0  1  0  1  0  0  0  0  0  0
    5.5059   -3.9235   27.4828 H   0  0  0  1  0  1  0  0  0  0  0  0
    6.9087   -3.0000   28.1200 H   0  0  0  1  0  1  0  0  0  0  0  0
    3.0835   -0.0237   29.2565 H   0  0  0  1  0  1  0  0  0  0  0  0
    2.8259    1.4587   28.2750 H   0  0  0  1  0  1  0  0  0  0  0  0
    4.3473    1.9482   30.1252 H   0  0  0  1  0  1  0  0  0  0  0  0
    5.4199    0.5905   29.6402 H   0  0  0  1  0  1  0  0  0  0  0  0
   12.0821    9.6903   22.4444 H   0  0  0  1  0  1  0  0  0  0  0  0
   13.0597    7.8236   21.1291 H   0  0  0  1  0  1  0  0  0  0  0  0
    3.3609   -1.9536   29.2376 H   0  0  0  1  0  1  0  0  0  0  0  0
    4.4844   -3.2397   28.6790 H   0  0  0  1  0  1  0  0  0  0  0  0
  1 14  1  0  0  0  0
  1 15  1  0  0  0  0
  1 32  1  0  0  0  0
  2  8  1  0  0  0  0
  2  9  1  0  0  0  0
  2 25  1  0  0  0  0
  2 33  1  0  0  0  0
  3 20  1  0  0  0  0
  3 22  1  0  0  0  0
  3 28  1  0  0  0  0
  3 38  1  0  0  0  0
  4 15  2  0  0  0  0
  4 27  1  0  0  0  0
  4 31  1  0  0  0  0
  5  7  2  0  0  0  0
  5 10  1  0  0  0  0
  5 11  1  0  0  0  0
  6  8  1  0  0  0  0
  6 10  2  0  0  0  0
  6 16  1  0  0  0  0
  7 12  1  0  0  0  0
  7 35  1  0  0  0  0
  8 36  1  0  0  0  0
  8 37  1  0  0  0  0
  9 18  1  0  0  0  0
  9 39  1  0  0  0  0
  9 40  1  0  0  0  0
 10 41  1  0  0  0  0
 11 13  3  0  0  0  0
 12 16  2  0  0  0  0
 12 30  1  0  0  0  0
 13 14  1  0  0  0  0
 14 42  1  0  0  0  0
 14 43  1  0  0  0  0
 15 17  1  0  0  0  0
 16 29  1  0  0  0  0
 17 19  2  0  0  0  0
 17 44  1  0  0  0  0
 18 20  1  0  0  0  0
 18 45  1  0  0  0  0
 18 46  1  0  0  0  0
 19 26  1  0  0  0  0
 19 47  1  0  0  0  0
 20 24  1  0  0  0  0
 20 48  1  0  0  0  0
 21 28  1  0  0  0  0
 21 49  1  0  0  0  0
 21 50  1  0  0  0  0
 21 51  1  0  0  0  0
 22 23  1  0  0  0  0
 22 52  1  0  0  0  0
 22 53  1  0  0  0  0
 23 54  1  0  0  0  0
 23 55  1  0  0  0  0
 23 56  1  0  0  0  0
 24 25  1  0  0  0  0
 24 57  1  0  0  0  0
 24 58  1  0  0  0  0
 25 59  1  0  0  0  0
 25 60  1  0  0  0  0
 26 27  2  0  0  0  0
 26 61  1  0  0  0  0
 27 62  1  0  0  0  0
 28 63  1  0  0  0  0
 28 64  1  0  0  0  0
 29 34  1  0  0  0  0
M  END
> <ConfScore>
-0.390839 

$$$$
4agq


 64 66  0  0  0  0  0  0  0  0999 V2000
   31.9831    6.4124    5.9694 N   0  0  0  1  0  3  0  0  0  0  0  0
   24.4330    4.1140    6.3520 N   0  3  0  1  0  4  0  0  0  0  0  0
   25.1980    0.4547    8.4978 N   0  3  0  1  0  4  0  0  0  0  0  0
   30.6298    8.4368    5.6506 C   0  0  0  1  0  3  0  0  0  0  0  0
   27.9245    5.1206    3.6650 C   0  0  0  1  0  3  0  0  0  0  0  0
   25.6002    5.0363    4.3666 C   0  0  0  1  0  3  0  0  0  0  0  0
   27.5619    4.6287    2.4034 C   0  0  0  1  0  3  0  0  0  0  0  0
   24.5480    5.2730    5.4500 C   0  0  0  1  0  4  0  0  0  0  0  0
   25.4840    4.1440    7.3870 C   0  0  0  1  0  4  0  0  0  0  0  0
   26.9453    5.3118    4.6468 C   0  0  0  1  0  3  0  0  0  0  0  0
   29.2904    5.3918    3.9819 C   0  0  0  1  0  2  0  0  0  0  0  0
   26.2204    4.3416    2.1145 C   0  0  0  1  0  3  0  0  0  0  0  0
   30.4233    5.6359    4.2987 C   0  0  0  1  0  2  0  0  0  0  0  0
   31.8288    5.9151    4.6252 C   0  0  0  1  0  4  0  0  0  0  0  0
   31.4086    7.5843    6.4386 C   0  0  0  1  0  3  0  0  0  0  0  0
   25.2492    4.5533    3.0970 C   0  0  0  1  0  3  0  0  0  0  0  0
   31.6141    7.9543    7.7754 C   0  0  0  1  0  3  0  0  0  0  0  0
   25.3250    2.9490    8.3330 C   0  0  0  1  0  4  0  0  0  0  0  0
   31.0601    9.1261    8.3028 C   0  0  0  1  0  3  0  0  0  0  0  0
   25.4480    1.6410    7.5540 C   0  0  0  1  0  4  0  0  0  0  0  0
   22.6927    0.5534    8.3262 C   0  0  0  1  0  4  0  0  0  0  0  0
   25.2803   -0.9155    7.8532 C   0  0  0  1  0  4  0  0  0  0  0  0
   24.1221   -1.1098    6.8900 C   0  0  0  1  0  4  0  0  0  0  0  0
   24.4130    1.6290    6.4330 C   0  0  0  1  0  4  0  0  0  0  0  0
   24.5460    2.8760    5.5510 C   0  0  0  1  0  4  0  0  0  0  0  0
   30.2877    9.9568    7.4989 C   0  0  0  1  0  3  0  0  0  0  0  0
   30.0669    9.6080    6.1677 C   0  0  0  1  0  3  0  0  0  0  0  0
   23.8806    0.5920    9.2737 C   0  0  0  1  0  4  0  0  0  0  0  0
   23.9248    4.2701    2.8474 O   0  0  0  1  0  2  0  0  0  0  0  0
   25.6336    3.6218    0.2004 I   0  0  0  1  0  1  0  0  0  0  0  0
   30.4579    8.1837    4.6101 H   0  0  0  1  0  1  0  0  0  0  0  0
   32.5577    5.8624    6.6234 H   0  0  0  1  0  1  0  0  0  0  0  0
   23.5397    4.1450    6.8182 H   0  0  0  1  0  1  0  0  0  0  0  0
   23.8325    3.9540    1.9558 H   0  0  0  1  0  1  0  0  0  0  0  0
   28.3217    4.4691    1.6477 H   0  0  0  1  0  1  0  0  0  0  0  0
   24.8338    6.1574    6.0389 H   0  0  0  1  0  1  0  0  0  0  0  0
   23.5748    5.4503    4.9702 H   0  0  0  1  0  1  0  0  0  0  0  0
   25.9399    0.4877    9.1799 H   0  0  0  1  0  1  0  0  0  0  0  0
   25.4009    5.0772    7.9628 H   0  0  0  1  0  1  0  0  0  0  0  0
   26.4711    4.0970    6.9045 H   0  0  0  1  0  1  0  0  0  0  0  0
   27.2285    5.6746    5.6284 H   0  0  0  1  0  1  0  0  0  0  0  0
   32.4087    4.9854    4.5216 H   0  0  0  1  0  1  0  0  0  0  0  0
   32.2148    6.6670    3.9221 H   0  0  0  1  0  1  0  0  0  0  0  0
   32.2152    7.3174    8.4140 H   0  0  0  1  0  1  0  0  0  0  0  0
   24.3367    2.9945    8.8128 H   0  0  0  1  0  1  0  0  0  0  0  0
   26.1091    2.9884    9.1031 H   0  0  0  1  0  1  0  0  0  0  0  0
   31.2345    9.3863    9.3399 H   0  0  0  1  0  1  0  0  0  0  0  0
   26.4575    1.5618    7.1241 H   0  0  0  1  0  1  0  0  0  0  0  0
   22.6988   -0.3955    7.7702 H   0  0  0  1  0  1  0  0  0  0  0  0
   22.7619    1.3926    7.6179 H   0  0  0  1  0  1  0  0  0  0  0  0
   21.7598    0.6352    8.9035 H   0  0  0  1  0  1  0  0  0  0  0  0
   25.2368   -1.6887    8.6344 H   0  0  0  1  0  1  0  0  0  0  0  0
   26.2298   -1.0026    7.3032 H   0  0  0  1  0  1  0  0  0  0  0  0
   24.1912   -2.1056    6.4288 H   0  0  0  1  0  1  0  0  0  0  0  0
   24.1633   -0.3390    6.1068 H   0  0  0  1  0  1  0  0  0  0  0  0
   23.1706   -1.0250    7.4373 H   0  0  0  1  0  1  0  0  0  0  0  0
   23.4060    1.6058    6.8735 H   0  0  0  1  0  1  0  0  0  0  0  0
   24.5637    0.7322    5.8135 H   0  0  0  1  0  1  0  0  0  0  0  0
   25.5264    2.8597    5.0529 H   0  0  0  1  0  1  0  0  0  0  0  0
   23.7485    2.8655    4.7926 H   0  0  0  1  0  1  0  0  0  0  0  0
   29.8606   10.8665    7.9045 H   0  0  0  1  0  1  0  0  0  0  0  0
   29.4595   10.2440    5.5335 H   0  0  0  1  0  1  0  0  0  0  0  0
   23.8792    1.5495    9.8159 H   0  0  0  1  0  1  0  0  0  0  0  0
   23.7967   -0.2366    9.9929 H   0  0  0  1  0  1  0  0  0  0  0  0
  1 14  1  0  0  0  0
  1 15  1  0  0  0  0
  1 32  1  0  0  0  0
  2  8  1  0  0  0  0
  2  9  1  0  0  0  0
  2 25  1  0  0  0  0
  2 33  1  0  0  0  0
  3 20  1  0  0  0  0
  3 22  1  0  0  0  0
  3 28  1  0  0  0  0
  3 38  1  0  0  0  0
  4 15  2  0  0  0  0
  4 27  1  0  0  0  0
  4 31  1  0  0  0  0
  5  7  2  0  0  0  0
  5 10  1  0  0  0  0
  5 11  1  0  0  0  0
  6  8  1  0  0  0  0
  6 10  2  0  0  0  0
  6 16  1  0  0  0  0
  7 12  1  0  0  0  0
  7 35  1  0  0  0  0
  8 36  1  0  0  0  0
  8 37  1  0  0  0  0
  9 18  1  0  0  0  0
  9 39  1  0  0  0  0
  9 40  1  0  0  0  0
 10 41  1  0  0  0  0
 11 13  3  0  0  0  0
 12 16  2  0  0  0  0
 12 30  1  0  0  0  0
 13 14  1  0  0  0  0
 14 42  1  0  0  0  0
 14 43  1  0  0  0  0
 15 17  1  0  0  0  0
 16 29  1  0  0  0  0
 17 19  2  0  0  0  0
 17 44  1  0  0  0  0
 18 20  1  0  0  0  0
 18 45  1  0  0  0  0
 18 46  1  0  0  0  0
 19 26  1  0  0  0  0
 19 47  1  0  0  0  0
 20 24  1  0  0  0  0
 20 48  1  0  0  0  0
 21 28  1  0  0  0  0
 21 49  1  0  0  0  0
 21 50  1  0  0  0  0
 21 51  1  0  0  0  0
 22 23  1  0  0  0  0
 22 52  1  0  0  0  0
 22 53  1  0  0  0  0
 23 54  1  0  0  0  0
 23 55  1  0  0  0  0
 23 56  1  0  0  0  0
 24 25  1  0  0  0  0
 24 57  1  0  0  0  0
 24 58  1  0  0  0  0
 25 59  1  0  0  0  0
 25 60  1  0  0  0  0
 26 27  2  0  0  0  0
 26 61  1  0  0  0  0
 27 62  1  0  0  0  0
 28 63  1  0  0  0  0
 28 64  1  0  0  0  0
 29 34  1  0  0  0  0
M  END
> <ConfScore>
-0.388873 

$$$$
4agq


 64 66  0  0  0  0  0  0  0  0999 V2000
    5.3131    5.4934   -0.6004 N   0  0  0  1  0  3  0  0  0  0  0  0
    2.5209    6.6299    6.3322 N   0  3  0  1  0  4  0  0  0  0  0  0
    1.3441    8.7890    9.1245 N   0  3  0  1  0  4  0  0  0  0  0  0
    3.6478    7.1963   -0.0017 C   0  0  0  1  0  3  0  0  0  0  0  0
    2.5692    3.6814    2.9547 C   0  0  0  1  0  3  0  0  0  0  0  0
    2.3480    4.2542    5.3053 C   0  0  0  1  0  3  0  0  0  0  0  0
    1.6345    2.6496    3.1178 C   0  0  0  1  0  3  0  0  0  0  0  0
    2.7438    5.1386    6.4710 C   0  0  0  1  0  4  0  0  0  0  0  0
    1.0783    6.9623    6.6507 C   0  0  0  1  0  4  0  0  0  0  0  0
    2.9324    4.4730    4.0505 C   0  0  0  1  0  3  0  0  0  0  0  0
    3.1931    3.9133    1.6912 C   0  0  0  1  0  2  0  0  0  0  0  0
    1.0495    2.4160    4.3703 C   0  0  0  1  0  3  0  0  0  0  0  0
    3.7458    4.1501    0.6511 C   0  0  0  1  0  2  0  0  0  0  0  0
    4.3880    4.3890   -0.6491 C   0  0  0  1  0  4  0  0  0  0  0  0
    4.9569    6.7963   -0.2853 C   0  0  0  1  0  3  0  0  0  0  0  0
    1.4068    3.2243    5.4530 C   0  0  0  1  0  3  0  0  0  0  0  0
    5.9522    7.7833   -0.2496 C   0  0  0  1  0  3  0  0  0  0  0  0
    0.8308    8.4545    6.7078 C   0  0  0  1  0  4  0  0  0  0  0  0
    5.6509    9.1141    0.0610 C   0  0  0  1  0  3  0  0  0  0  0  0
    1.7396    9.1749    7.6909 C   0  0  0  1  0  4  0  0  0  0  0  0
   -1.1182    9.1623    8.7880 C   0  0  0  1  0  4  0  0  0  0  0  0
    1.1784    7.3024    9.3738 C   0  0  0  1  0  4  0  0  0  0  0  0
   -0.0231    6.7755    8.6086 C   0  0  0  1  0  4  0  0  0  0  0  0
    3.1859    8.7850    7.4475 C   0  0  0  1  0  4  0  0  0  0  0  0
    3.3964    7.2849    7.3752 C   0  0  0  1  0  4  0  0  0  0  0  0
    4.3411    9.4866    0.3409 C   0  0  0  1  0  3  0  0  0  0  0  0
    3.3352    8.5223    0.3148 C   0  0  0  1  0  3  0  0  0  0  0  0
    0.1003    9.5453    9.6118 C   0  0  0  1  0  4  0  0  0  0  0  0
    0.8582    3.0126    6.6983 O   0  0  0  1  0  2  0  0  0  0  0  0
   -0.3939    0.8771    4.6442 I   0  0  0  1  0  1  0  0  0  0  0  0
    2.8529    6.4589   -0.0283 H   0  0  0  1  0  1  0  0  0  0  0  0
    6.3022    5.3030   -0.8141 H   0  0  0  1  0  1  0  0  0  0  0  0
    2.7338    6.9425    5.3977 H   0  0  0  1  0  1  0  0  0  0  0  0
    0.2418    2.2904    6.6527 H   0  0  0  1  0  1  0  0  0  0  0  0
    1.3628    2.0290    2.2723 H   0  0  0  1  0  1  0  0  0  0  0  0
    2.1713    4.8014    7.3481 H   0  0  0  1  0  1  0  0  0  0  0  0
    3.8171    4.9828    6.6512 H   0  0  0  1  0  1  0  0  0  0  0  0
    2.1105    9.0867    9.7084 H   0  0  0  1  0  1  0  0  0  0  0  0
    0.8218    6.5240    7.6261 H   0  0  0  1  0  1  0  0  0  0  0  0
    0.4352    6.5270    5.8721 H   0  0  0  1  0  1  0  0  0  0  0  0
    3.6691    5.2589    3.9284 H   0  0  0  1  0  1  0  0  0  0  0  0
    4.9340    3.4811   -0.9475 H   0  0  0  1  0  1  0  0  0  0  0  0
    3.6107    4.6097   -1.3947 H   0  0  0  1  0  1  0  0  0  0  0  0
    6.9779    7.5083   -0.4669 H   0  0  0  1  0  1  0  0  0  0  0  0
   -0.2132    8.6243    7.0082 H   0  0  0  1  0  1  0  0  0  0  0  0
    0.9973    8.8749    5.7054 H   0  0  0  1  0  1  0  0  0  0  0  0
    6.4407    9.8554    0.0825 H   0  0  0  1  0  1  0  0  0  0  0  0
    1.6289   10.2615    7.5593 H   0  0  0  1  0  1  0  0  0  0  0  0
   -1.2879    8.0786    8.8675 H   0  0  0  1  0  1  0  0  0  0  0  0
   -0.9464    9.4290    7.7343 H   0  0  0  1  0  1  0  0  0  0  0  0
   -2.0003    9.7012    9.1647 H   0  0  0  1  0  1  0  0  0  0  0  0
    1.0292    7.1280   10.4496 H   0  0  0  1  0  1  0  0  0  0  0  0
    2.0840    6.7740    9.0386 H   0  0  0  1  0  1  0  0  0  0  0  0
   -0.1342    5.6977    8.7964 H   0  0  0  1  0  1  0  0  0  0  0  0
    0.1234    6.9472    7.5324 H   0  0  0  1  0  1  0  0  0  0  0  0
   -0.9311    7.3008    8.9428 H   0  0  0  1  0  1  0  0  0  0  0  0
    3.7982    9.1844    8.2686 H   0  0  0  1  0  1  0  0  0  0  0  0
    3.5125    9.2301    6.4957 H   0  0  0  1  0  1  0  0  0  0  0  0
    4.4494    7.0877    7.1266 H   0  0  0  1  0  1  0  0  0  0  0  0
    3.1628    6.8476    8.3578 H   0  0  0  1  0  1  0  0  0  0  0  0
    4.1050   10.5174    0.5783 H   0  0  0  1  0  1  0  0  0  0  0  0
    2.3113    8.7996    0.5392 H   0  0  0  1  0  1  0  0  0  0  0  0
    0.2754   10.6274    9.5163 H   0  0  0  1  0  1  0  0  0  0  0  0
   -0.0838    9.2957   10.6676 H   0  0  0  1  0  1  0  0  0  0  0  0
  1 14  1  0  0  0  0
  1 15  1  0  0  0  0
  1 32  1  0  0  0  0
  2  8  1  0  0  0  0
  2  9  1  0  0  0  0
  2 25  1  0  0  0  0
  2 33  1  0  0  0  0
  3 20  1  0  0  0  0
  3 22  1  0  0  0  0
  3 28  1  0  0  0  0
  3 38  1  0  0  0  0
  4 15  2  0  0  0  0
  4 27  1  0  0  0  0
  4 31  1  0  0  0  0
  5  7  2  0  0  0  0
  5 10  1  0  0  0  0
  5 11  1  0  0  0  0
  6  8  1  0  0  0  0
  6 10  2  0  0  0  0
  6 16  1  0  0  0  0
  7 12  1  0  0  0  0
  7 35  1  0  0  0  0
  8 36  1  0  0  0  0
  8 37  1  0  0  0  0
  9 18  1  0  0  0  0
  9 39  1  0  0  0  0
  9 40  1  0  0  0  0
 10 41  1  0  0  0  0
 11 13  3  0  0  0  0
 12 16  2  0  0  0  0
 12 30  1  0  0  0  0
 13 14  1  0  0  0  0
 14 42  1  0  0  0  0
 14 43  1  0  0  0  0
 15 17  1  0  0  0  0
 16 29  1  0  0  0  0
 17 19  2  0  0  0  0
 17 44  1  0  0  0  0
 18 20  1  0  0  0  0
 18 45  1  0  0  0  0
 18 46  1  0  0  0  0
 19 26  1  0  0  0  0
 19 47  1  0  0  0  0
 20 24  1  0  0  0  0
 20 48  1  0  0  0  0
 21 28  1  0  0  0  0
 21 49  1  0  0  0  0
 21 50  1  0  0  0  0
 21 51  1  0  0  0  0
 22 23  1  0  0  0  0
 22 52  1  0  0  0  0
 22 53  1  0  0  0  0
 23 54  1  0  0  0  0
 23 55  1  0  0  0  0
 23 56  1  0  0  0  0
 24 25  1  0  0  0  0
 24 57  1  0  0  0  0
 24 58  1  0  0  0  0
 25 59  1  0  0  0  0
 25 60  1  0  0  0  0
 26 27  2  0  0  0  0
 26 61  1  0  0  0  0
 27 62  1  0  0  0  0
 28 63  1  0  0  0  0
 28 64  1  0  0  0  0
 29 34  1  0  0  0  0
M  END
> <ConfScore>
-0.388605 

$$$$
4agq


 64 66  0  0  0  0  0  0  0  0999 V2000
   -4.7223    4.7363    7.3808 N   0  0  0  1  0  3  0  0  0  0  0  0
    2.5209    6.6299    6.3322 N   0  3  0  1  0  4  0  0  0  0  0  0
    1.3441    8.7890    9.1245 N   0  3  0  1  0  4  0  0  0  0  0  0
   -3.6915    6.8518    8.0832 C   0  0  0  1  0  3  0  0  0  0  0  0
   -0.1270    3.8030    8.5905 C   0  0  0  1  0  3  0  0  0  0  0  0
    1.9907    4.4114    7.5672 C   0  0  0  1  0  3  0  0  0  0  0  0
    0.5577    3.0905    9.5848 C   0  0  0  1  0  3  0  0  0  0  0  0
    2.7438    5.1386    6.4710 C   0  0  0  1  0  4  0  0  0  0  0  0
    1.0783    6.9623    6.6507 C   0  0  0  1  0  4  0  0  0  0  0  0
    0.5899    4.4512    7.5781 C   0  0  0  1  0  3  0  0  0  0  0  0
   -1.5544    3.8438    8.5684 C   0  0  0  1  0  2  0  0  0  0  0  0
    1.9586    3.0367    9.5793 C   0  0  0  1  0  3  0  0  0  0  0  0
   -2.7523    3.9098    8.5047 C   0  0  0  1  0  2  0  0  0  0  0  0
   -4.2212    3.9520    8.4816 C   0  0  0  1  0  4  0  0  0  0  0  0
   -4.4579    6.0858    7.2001 C   0  0  0  1  0  3  0  0  0  0  0  0
    2.6643    3.7026    8.5735 C   0  0  0  1  0  3  0  0  0  0  0  0
   -4.9856    6.7372    6.0761 C   0  0  0  1  0  3  0  0  0  0  0  0
    0.8308    8.4545    6.7078 C   0  0  0  1  0  4  0  0  0  0  0  0
   -4.7526    8.0972    5.8433 C   0  0  0  1  0  3  0  0  0  0  0  0
    1.7396    9.1749    7.6909 C   0  0  0  1  0  4  0  0  0  0  0  0
   -1.1182    9.1623    8.7880 C   0  0  0  1  0  4  0  0  0  0  0  0
    1.1784    7.3024    9.3738 C   0  0  0  1  0  4  0  0  0  0  0  0
   -0.0231    6.7755    8.6086 C   0  0  0  1  0  4  0  0  0  0  0  0
    3.1859    8.7850    7.4475 C   0  0  0  1  0  4  0  0  0  0  0  0
    3.3964    7.2849    7.3752 C   0  0  0  1  0  4  0  0  0  0  0  0
   -3.9856    8.8373    6.7360 C   0  0  0  1  0  3  0  0  0  0  0  0
   -3.4478    8.2106    7.8587 C   0  0  0  1  0  3  0  0  0  0  0  0
    0.1003    9.5453    9.6118 C   0  0  0  1  0  4  0  0  0  0  0  0
    4.0402    3.6591    8.5344 O   0  0  0  1  0  2  0  0  0  0  0  0
    3.0285    1.9886   11.0905 I   0  0  0  1  0  1  0  0  0  0  0  0
   -3.2750    6.3802    8.9666 H   0  0  0  1  0  1  0  0  0  0  0  0
   -5.3155    4.2644    6.6839 H   0  0  0  1  0  1  0  0  0  0  0  0
    2.7338    6.9425    5.3977 H   0  0  0  1  0  1  0  0  0  0  0  0
    4.3606    3.1496    9.2702 H   0  0  0  1  0  1  0  0  0  0  0  0
    0.0021    2.5785   10.3613 H   0  0  0  1  0  1  0  0  0  0  0  0
    3.8179    4.9827    6.6516 H   0  0  0  1  0  1  0  0  0  0  0  0
    2.4611    4.6744    5.5153 H   0  0  0  1  0  1  0  0  0  0  0  0
    2.1105    9.0867    9.7084 H   0  0  0  1  0  1  0  0  0  0  0  0
    0.8218    6.5240    7.6261 H   0  0  0  1  0  1  0  0  0  0  0  0
    0.4352    6.5270    5.8721 H   0  0  0  1  0  1  0  0  0  0  0  0
    0.0596    4.9866    6.7987 H   0  0  0  1  0  1  0  0  0  0  0  0
   -4.6044    2.9244    8.3891 H   0  0  0  1  0  1  0  0  0  0  0  0
   -4.5793    4.3924    9.4231 H   0  0  0  1  0  1  0  0  0  0  0  0
   -5.5868    6.1737    5.3719 H   0  0  0  1  0  1  0  0  0  0  0  0
   -0.2132    8.6243    7.0082 H   0  0  0  1  0  1  0  0  0  0  0  0
    0.9973    8.8749    5.7054 H   0  0  0  1  0  1  0  0  0  0  0  0
   -5.1719    8.5742    4.9656 H   0  0  0  1  0  1  0  0  0  0  0  0
    1.6289   10.2615    7.5593 H   0  0  0  1  0  1  0  0  0  0  0  0
   -1.2879    8.0786    8.8675 H   0  0  0  1  0  1  0  0  0  0  0  0
   -0.9464    9.4290    7.7343 H   0  0  0  1  0  1  0  0  0  0  0  0
   -2.0003    9.7012    9.1647 H   0  0  0  1  0  1  0  0  0  0  0  0
    1.0292    7.1280   10.4496 H   0  0  0  1  0  1  0  0  0  0  0  0
    2.0840    6.7740    9.0386 H   0  0  0  1  0  1  0  0  0  0  0  0
   -0.1342    5.6977    8.7964 H   0  0  0  1  0  1  0  0  0  0  0  0
    0.1234    6.9472    7.5324 H   0  0  0  1  0  1  0  0  0  0  0  0
   -0.9311    7.3008    8.9428 H   0  0  0  1  0  1  0  0  0  0  0  0
    3.7982    9.1844    8.2686 H   0  0  0  1  0  1  0  0  0  0  0  0
    3.5125    9.2301    6.4957 H   0  0  0  1  0  1  0  0  0  0  0  0
    4.4494    7.0877    7.1266 H   0  0  0  1  0  1  0  0  0  0  0  0
    3.1628    6.8476    8.3578 H   0  0  0  1  0  1  0  0  0  0  0  0
   -3.8068    9.8915    6.5594 H   0  0  0  1  0  1  0  0  0  0  0  0
   -2.8413    8.7757    8.5576 H   0  0  0  1  0  1  0  0  0  0  0  0
    0.2754   10.6274    9.5163 H   0  0  0  1  0  1  0  0  0  0  0  0
   -0.0838    9.2957   10.6676 H   0  0  0  1  0  1  0  0  0  0  0  0
  1 14  1  0  0  0  0
  1 15  1  0  0  0  0
  1 32  1  0  0  0  0
  2  8  1  0  0  0  0
  2  9  1  0  0  0  0
  2 25  1  0  0  0  0
  2 33  1  0  0  0  0
  3 20  1  0  0  0  0
  3 22  1  0  0  0  0
  3 28  1  0  0  0  0
  3 38  1  0  0  0  0
  4 15  2  0  0  0  0
  4 27  1  0  0  0  0
  4 31  1  0  0  0  0
  5  7  2  0  0  0  0
  5 10  1  0  0  0  0
  5 11  1  0  0  0  0
  6  8  1  0  0  0  0
  6 10  2  0  0  0  0
  6 16  1  0  0  0  0
  7 12  1  0  0  0  0
  7 35  1  0  0  0  0
  8 36  1  0  0  0  0
  8 37  1  0  0  0  0
  9 18  1  0  0  0  0
  9 39  1  0  0  0  0
  9 40  1  0  0  0  0
 10 41  1  0  0  0  0
 11 13  3  0  0  0  0
 12 16  2  0  0  0  0
 12 30  1  0  0  0  0
 13 14  1  0  0  0  0
 14 42  1  0  0  0  0
 14 43  1  0  0  0  0
 15 17  1  0  0  0  0
 16 29  1  0  0  0  0
 17 19  2  0  0  0  0
 17 44  1  0  0  0  0
 18 20  1  0  0  0  0
 18 45  1  0  0  0  0
 18 46  1  0  0  0  0
 19 26  1  0  0  0  0
 19 47  1  0  0  0  0
 20 24  1  0  0  0  0
 20 48  1  0  0  0  0
 21 28  1  0  0  0  0
 21 49  1  0  0  0  0
 21 50  1  0  0  0  0
 21 51  1  0  0  0  0
 22 23  1  0  0  0  0
 22 52  1  0  0  0  0
 22 53  1  0  0  0  0
 23 54  1  0  0  0  0
 23 55  1  0  0  0  0
 23 56  1  0  0  0  0
 24 25  1  0  0  0  0
 24 57  1  0  0  0  0
 24 58  1  0  0  0  0
 25 59  1  0  0  0  0
 25 60  1  0  0  0  0
 26 27  2  0  0  0  0
 26 61  1  0  0  0  0
 27 62  1  0  0  0  0
 28 63  1  0  0  0  0
 28 64  1  0  0  0  0
 29 34  1  0  0  0  0
M  END
> <ConfScore>
-0.386614 

$$$$
4agq


 64 66  0  0  0  0  0  0  0  0999 V2000
   17.3460    7.5040    5.5059 N   0  0  0  1  0  3  0  0  0  0  0  0
   24.4330    4.1140    6.3520 N   0  3  0  1  0  4  0  0  0  0  0  0
   25.1980    0.4547    8.4978 N   0  3  0  1  0  4  0  0  0  0  0  0
   18.5466    7.8819    3.3971 C   0  0  0  1  0  3  0  0  0  0  0  0
   22.0530    7.9506    6.5527 C   0  0  0  1  0  3  0  0  0  0  0  0
   23.9741    6.5377    6.0886 C   0  0  0  1  0  3  0  0  0  0  0  0
   22.8810    8.8531    7.2346 C   0  0  0  1  0  3  0  0  0  0  0  0
   24.5480    5.2730    5.4500 C   0  0  0  1  0  4  0  0  0  0  0  0
   25.4840    4.1440    7.3870 C   0  0  0  1  0  4  0  0  0  0  0  0
   22.5990    6.7901    5.9921 C   0  0  0  1  0  3  0  0  0  0  0  0
   20.6459    8.1750    6.4560 C   0  0  0  1  0  2  0  0  0  0  0  0
   24.2568    8.6069    7.3447 C   0  0  0  1  0  3  0  0  0  0  0  0
   19.4581    8.3171    6.3458 C   0  0  0  1  0  2  0  0  0  0  0  0
   18.0100    8.5477    6.2461 C   0  0  0  1  0  4  0  0  0  0  0  0
   17.6142    7.1957    4.1805 C   0  0  0  1  0  3  0  0  0  0  0  0
   24.7934    7.4537    6.7657 C   0  0  0  1  0  3  0  0  0  0  0  0
   16.9159    6.1422    3.5731 C   0  0  0  1  0  3  0  0  0  0  0  0
   25.3250    2.9490    8.3330 C   0  0  0  1  0  4  0  0  0  0  0  0
   17.1443    5.7875    2.2389 C   0  0  0  1  0  3  0  0  0  0  0  0
   25.4480    1.6410    7.5540 C   0  0  0  1  0  4  0  0  0  0  0  0
   22.6927    0.5534    8.3262 C   0  0  0  1  0  4  0  0  0  0  0  0
   25.2803   -0.9155    7.8532 C   0  0  0  1  0  4  0  0  0  0  0  0
   24.1221   -1.1098    6.8900 C   0  0  0  1  0  4  0  0  0  0  0  0
   24.4130    1.6290    6.4330 C   0  0  0  1  0  4  0  0  0  0  0  0
   24.5460    2.8760    5.5510 C   0  0  0  1  0  4  0  0  0  0  0  0
   18.0782    6.4847    1.4809 C   0  0  0  1  0  3  0  0  0  0  0  0
   18.7869    7.5335    2.0640 C   0  0  0  1  0  3  0  0  0  0  0  0
   23.8806    0.5920    9.2737 C   0  0  0  1  0  4  0  0  0  0  0  0
   26.1389    7.1783    6.8665 O   0  0  0  1  0  2  0  0  0  0  0  0
   25.5450    9.9712    8.3477 I   0  0  0  1  0  1  0  0  0  0  0  0
   19.0982    8.7071    3.8343 H   0  0  0  1  0  1  0  0  0  0  0  0
   16.6255    6.9522    5.9924 H   0  0  0  1  0  1  0  0  0  0  0  0
   23.5397    4.1450    6.8182 H   0  0  0  1  0  1  0  0  0  0  0  0
   26.5688    7.8774    7.3459 H   0  0  0  1  0  1  0  0  0  0  0  0
   22.4562    9.7451    7.6792 H   0  0  0  1  0  1  0  0  0  0  0  0
   23.9973    5.0596    4.5216 H   0  0  0  1  0  1  0  0  0  0  0  0
   25.6093    5.4404    5.2169 H   0  0  0  1  0  1  0  0  0  0  0  0
   25.9399    0.4877    9.1799 H   0  0  0  1  0  1  0  0  0  0  0  0
   25.4009    5.0772    7.9628 H   0  0  0  1  0  1  0  0  0  0  0  0
   26.4711    4.0970    6.9045 H   0  0  0  1  0  1  0  0  0  0  0  0
   21.9555    6.0830    5.4809 H   0  0  0  1  0  1  0  0  0  0  0  0
   17.5863    8.5881    7.2611 H   0  0  0  1  0  1  0  0  0  0  0  0
   17.8367    9.5077    5.7391 H   0  0  0  1  0  1  0  0  0  0  0  0
   16.1836    5.5903    4.1510 H   0  0  0  1  0  1  0  0  0  0  0  0
   24.3367    2.9945    8.8128 H   0  0  0  1  0  1  0  0  0  0  0  0
   26.1091    2.9884    9.1031 H   0  0  0  1  0  1  0  0  0  0  0  0
   16.5910    4.9681    1.7959 H   0  0  0  1  0  1  0  0  0  0  0  0
   26.4575    1.5618    7.1241 H   0  0  0  1  0  1  0  0  0  0  0  0
   22.6988   -0.3955    7.7702 H   0  0  0  1  0  1  0  0  0  0  0  0
   22.7619    1.3926    7.6179 H   0  0  0  1  0  1  0  0  0  0  0  0
   21.7598    0.6352    8.9035 H   0  0  0  1  0  1  0  0  0  0  0  0
   25.2368   -1.6887    8.6344 H   0  0  0  1  0  1  0  0  0  0  0  0
   26.2298   -1.0026    7.3032 H   0  0  0  1  0  1  0  0  0  0  0  0
   24.1912   -2.1056    6.4288 H   0  0  0  1  0  1  0  0  0  0  0  0
   24.1633   -0.3390    6.1068 H   0  0  0  1  0  1  0  0  0  0  0  0
   23.1706   -1.0250    7.4373 H   0  0  0  1  0  1  0  0  0  0  0  0
   23.4060    1.6058    6.8735 H   0  0  0  1  0  1  0  0  0  0  0  0
   24.5637    0.7322    5.8135 H   0  0  0  1  0  1  0  0  0  0  0  0
   25.5264    2.8597    5.0529 H   0  0  0  1  0  1  0  0  0  0  0  0
   23.7485    2.8655    4.7926 H   0  0  0  1  0  1  0  0  0  0  0  0
   18.2541    6.2138    0.4463 H   0  0  0  1  0  1  0  0  0  0  0  0
   19.5235    8.0792    1.4850 H   0  0  0  1  0  1  0  0  0  0  0  0
   23.8792    1.5495    9.8159 H   0  0  0  1  0  1  0  0  0  0  0  0
   23.7967   -0.2366    9.9929 H   0  0  0  1  0  1  0  0  0  0  0  0
  1 14  1  0  0  0  0
  1 15  1  0  0  0  0
  1 32  1  0  0  0  0
  2  8  1  0  0  0  0
  2  9  1  0  0  0  0
  2 25  1  0  0  0  0
  2 33  1  0  0  0  0
  3 20  1  0  0  0  0
  3 22  1  0  0  0  0
  3 28  1  0  0  0  0
  3 38  1  0  0  0  0
  4 15  2  0  0  0  0
  4 27  1  0  0  0  0
  4 31  1  0  0  0  0
  5  7  2  0  0  0  0
  5 10  1  0  0  0  0
  5 11  1  0  0  0  0
  6  8  1  0  0  0  0
  6 10  2  0  0  0  0
  6 16  1  0  0  0  0
  7 12  1  0  0  0  0
  7 35  1  0  0  0  0
  8 36  1  0  0  0  0
  8 37  1  0  0  0  0
  9 18  1  0  0  0  0
  9 39  1  0  0  0  0
  9 40  1  0  0  0  0
 10 41  1  0  0  0  0
 11 13  3  0  0  0  0
 12 16  2  0  0  0  0
 12 30  1  0  0  0  0
 13 14  1  0  0  0  0
 14 42  1  0  0  0  0
 14 43  1  0  0  0  0
 15 17  1  0  0  0  0
 16 29  1  0  0  0  0
 17 19  2  0  0  0  0
 17 44  1  0  0  0  0
 18 20  1  0  0  0  0
 18 45  1  0  0  0  0
 18 46  1  0  0  0  0
 19 26  1  0  0  0  0
 19 47  1  0  0  0  0
 20 24  1  0  0  0  0
 20 48  1  0  0  0  0
 21 28  1  0  0  0  0
 21 49  1  0  0  0  0
 21 50  1  0  0  0  0
 21 51  1  0  0  0  0
 22 23  1  0  0  0  0
 22 52  1  0  0  0  0
 22 53  1  0  0  0  0
 23 54  1  0  0  0  0
 23 55  1  0  0  0  0
 23 56  1  0  0  0  0
 24 25  1  0  0  0  0
 24 57  1  0  0  0  0
 24 58  1  0  0  0  0
 25 59  1  0  0  0  0
 25 60  1  0  0  0  0
 26 27  2  0  0  0  0
 26 61  1  0  0  0  0
 27 62  1  0  0  0  0
 28 63  1  0  0  0  0
 28 64  1  0  0  0  0
 29 34  1  0  0  0  0
M  END
> <ConfScore>
-0.37725 

$$$$
4agq


 64 66  0  0  0  0  0  0  0  0999 V2000
    1.5506    8.7601   29.0461 N   0  0  0  1  0  3  0  0  0  0  0  0
    5.4320    2.2550   28.3390 N   0  3  0  1  0  4  0  0  0  0  0  0
    4.8039   -1.3070   27.7628 N   0  3  0  1  0  4  0  0  0  0  0  0
    1.9245    9.0596   26.6374 C   0  0  0  1  0  3  0  0  0  0  0  0
    4.7793    5.7382   31.0196 C   0  0  0  1  0  3  0  0  0  0  0  0
    6.0741    3.9199   30.1561 C   0  0  0  1  0  3  0  0  0  0  0  0
    5.3285    5.5260   32.2650 C   0  0  0  1  0  3  0  0  0  0  0  0
    6.4640    3.0610   28.9950 C   0  0  0  1  0  4  0  0  0  0  0  0
    6.0520    1.4770   27.2550 C   0  0  0  1  0  4  0  0  0  0  0  0
    5.1656    4.9483   29.9650 C   0  0  0  1  0  3  0  0  0  0  0  0
    3.8143    6.7731   30.8266 C   0  0  0  1  0  2  0  0  0  0  0  0
    6.2636    4.5164   32.4573 C   0  0  0  1  0  3  0  0  0  0  0  0
    2.9996    7.6293   30.6111 C   0  0  0  1  0  2  0  0  0  0  0  0
    2.0065    8.6942   30.4121 C   0  0  0  1  0  4  0  0  0  0  0  0
    2.3742    9.0179   27.9603 C   0  0  0  1  0  3  0  0  0  0  0  0
    6.6415    3.7133   31.4023 C   0  0  0  1  0  3  0  0  0  0  0  0
    3.7397    9.2468   28.1822 C   0  0  0  1  0  3  0  0  0  0  0  0
    4.9600    0.8100   26.4490 C   0  0  0  1  0  4  0  0  0  0  0  0
    4.6176    9.5105   27.1250 C   0  0  0  1  0  3  0  0  0  0  0  0
    4.0370   -0.0500   27.3240 C   0  0  0  1  0  4  0  0  0  0  0  0
    6.5530   -2.2816   29.2815 C   0  0  0  1  0  4  0  0  0  0  0  0
    3.9398   -2.4867   28.1644 C   0  0  0  1  0  4  0  0  0  0  0  0
    4.8133   -3.6820   28.5037 C   0  0  0  1  0  4  0  0  0  0  0  0
    3.5580    0.6920   28.5700 C   0  0  0  1  0  4  0  0  0  0  0  0
    4.7240    1.3610   29.2750 C   0  0  0  1  0  4  0  0  0  0  0  0
    4.1456    9.5481   25.8179 C   0  0  0  1  0  3  0  0  0  0  0  0
    2.7915    9.3269   25.5730 C   0  0  0  1  0  3  0  0  0  0  0  0
    5.8324   -1.0103   28.8630 C   0  0  0  1  0  4  0  0  0  0  0  0
    7.5735    2.7162   31.5858 O   0  0  0  1  0  2  0  0  0  0  0  0
    7.1137    4.2092   34.3833 I   0  0  0  1  0  1  0  0  0  0  0  0
    0.8753    8.8791   26.4305 H   0  0  0  1  0  1  0  0  0  0  0  0
    0.5487    8.6065   28.8648 H   0  0  0  1  0  1  0  0  0  0  0  0
    4.7370    2.8836   27.9673 H   0  0  0  1  0  1  0  0  0  0  0  0
    8.3742    3.0930   31.9328 H   0  0  0  1  0  1  0  0  0  0  0  0
    5.0297    6.1498   33.0990 H   0  0  0  1  0  1  0  0  0  0  0  0
    6.8910    3.7259   28.2293 H   0  0  0  1  0  1  0  0  0  0  0  0
    7.2385    2.3670   29.3516 H   0  0  0  1  0  1  0  0  0  0  0  0
    5.3251   -1.6052   26.9527 H   0  0  0  1  0  1  0  0  0  0  0  0
    6.7160    0.7116   27.6824 H   0  0  0  1  0  1  0  0  0  0  0  0
    6.6342    2.1468   26.6055 H   0  0  0  1  0  1  0  0  0  0  0  0
    4.7574    5.1304   28.9773 H   0  0  0  1  0  1  0  0  0  0  0  0
    1.1425    8.5006   31.0659 H   0  0  0  1  0  1  0  0  0  0  0  0
    2.4601    9.6587   30.6817 H   0  0  0  1  0  1  0  0  0  0  0  0
    4.1227    9.2193   29.1958 H   0  0  0  1  0  1  0  0  0  0  0  0
    5.4245    0.1680   25.6867 H   0  0  0  1  0  1  0  0  0  0  0  0
    4.3579    1.5876   25.9568 H   0  0  0  1  0  1  0  0  0  0  0  0
    5.6678    9.6850   27.3262 H   0  0  0  1  0  1  0  0  0  0  0  0
    3.1597   -0.3441   26.7290 H   0  0  0  1  0  1  0  0  0  0  0  0
    7.0725   -2.7107   28.4123 H   0  0  0  1  0  1  0  0  0  0  0  0
    5.8209   -3.0080   29.6650 H   0  0  0  1  0  1  0  0  0  0  0  0
    7.2850   -2.0466   30.0683 H   0  0  0  1  0  1  0  0  0  0  0  0
    3.2721   -2.7495   27.3307 H   0  0  0  1  0  1  0  0  0  0  0  0
    3.3377   -2.2140   29.0447 H   0  0  0  1  0  1  0  0  0  0  0  0
    4.1773   -4.5312   28.7930 H   0  0  0  1  0  1  0  0  0  0  0  0
    5.4813   -3.4230   29.3379 H   0  0  0  1  0  1  0  0  0  0  0  0
    5.4156   -3.9585   27.6246 H   0  0  0  1  0  1  0  0  0  0  0  0
    3.0835   -0.0237   29.2565 H   0  0  0  1  0  1  0  0  0  0  0  0
    2.8259    1.4587   28.2750 H   0  0  0  1  0  1  0  0  0  0  0  0
    4.3473    1.9482   30.1252 H   0  0  0  1  0  1  0  0  0  0  0  0
    5.4199    0.5905   29.6402 H   0  0  0  1  0  1  0  0  0  0  0  0
    4.8245    9.7488   24.9973 H   0  0  0  1  0  1  0  0  0  0  0  0
    2.4105    9.3617   24.5585 H   0  0  0  1  0  1  0  0  0  0  0  0
    5.3149   -0.5846   29.7357 H   0  0  0  1  0  1  0  0  0  0  0  0
    6.5684   -0.2855   28.4838 H   0  0  0  1  0  1  0  0  0  0  0  0
  1 14  1  0  0  0  0
  1 15  1  0  0  0  0
  1 32  1  0  0  0  0
  2  8  1  0  0  0  0
  2  9  1  0  0  0  0
  2 25  1  0  0  0  0
  2 33  1  0  0  0  0
  3 20  1  0  0  0  0
  3 22  1  0  0  0  0
  3 28  1  0  0  0  0
  3 38  1  0  0  0  0
  4 15  2  0  0  0  0
  4 27  1  0  0  0  0
  4 31  1  0  0  0  0
  5  7  2  0  0  0  0
  5 10  1  0  0  0  0
  5 11  1  0  0  0  0
  6  8  1  0  0  0  0
  6 10  2  0  0  0  0
  6 16  1  0  0  0  0
  7 12  1  0  0  0  0
  7 35  1  0  0  0  0
  8 36  1  0  0  0  0
  8 37  1  0  0  0  0
  9 18  1  0  0  0  0
  9 39  1  0  0  0  0
  9 40  1  0  0  0  0
 10 41  1  0  0  0  0
 11 13  3  0  0  0  0
 12 16  2  0  0  0  0
 12 30  1  0  0  0  0
 13 14  1  0  0  0  0
 14 42  1  0  0  0  0
 14 43  1  0  0  0  0
 15 17  1  0  0  0  0
 16 29  1  0  0  0  0
 17 19  2  0  0  0  0
 17 44  1  0  0  0  0
 18 20  1  0  0  0  0
 18 45  1  0  0  0  0
 18 46  1  0  0  0  0
 19 26  1  0  0  0  0
 19 47  1  0  0  0  0
 20 24  1  0  0  0  0
 20 48  1  0  0  0  0
 21 28  1  0  0  0  0
 21 49  1  0  0  0  0
 21 50  1  0  0  0  0
 21 51  1  0  0  0  0
 22 23  1  0  0  0  0
 22 52  1  0  0  0  0
 22 53  1  0  0  0  0
 23 54  1  0  0  0  0
 23 55  1  0  0  0  0
 23 56  1  0  0  0  0
 24 25  1  0  0  0  0
 24 57  1  0  0  0  0
 24 58  1  0  0  0  0
 25 59  1  0  0  0  0
 25 60  1  0  0  0  0
 26 27  2  0  0  0  0
 26 61  1  0  0  0  0
 27 62  1  0  0  0  0
 28 63  1  0  0  0  0
 28 64  1  0  0  0  0
 29 34  1  0  0  0  0
M  END
> <ConfScore>
-0.37061 

$$$$
4agq


 64 66  0  0  0  0  0  0  0  0999 V2000
    1.5506    8.7601   29.0461 N   0  0  0  1  0  3  0  0  0  0  0  0
    5.4320    2.2550   28.3390 N   0  3  0  1  0  4  0  0  0  0  0  0
    4.8039   -1.3070   27.7628 N   0  3  0  1  0  4  0  0  0  0  0  0
    3.7496    9.2441   28.0655 C   0  0  0  1  0  3  0  0  0  0  0  0
    4.7793    5.7382   31.0196 C   0  0  0  1  0  3  0  0  0  0  0  0
    6.0741    3.9199   30.1561 C   0  0  0  1  0  3  0  0  0  0  0  0
    5.3285    5.5260   32.2650 C   0  0  0  1  0  3  0  0  0  0  0  0
    6.4640    3.0610   28.9950 C   0  0  0  1  0  4  0  0  0  0  0  0
    6.0520    1.4770   27.2550 C   0  0  0  1  0  4  0  0  0  0  0  0
    5.1656    4.9483   29.9650 C   0  0  0  1  0  3  0  0  0  0  0  0
    3.8143    6.7731   30.8266 C   0  0  0  1  0  2  0  0  0  0  0  0
    6.2636    4.5164   32.4573 C   0  0  0  1  0  3  0  0  0  0  0  0
    2.9996    7.6293   30.6111 C   0  0  0  1  0  2  0  0  0  0  0  0
    2.0065    8.6942   30.4121 C   0  0  0  1  0  4  0  0  0  0  0  0
    2.3742    9.0179   27.9603 C   0  0  0  1  0  3  0  0  0  0  0  0
    6.6415    3.7133   31.4023 C   0  0  0  1  0  3  0  0  0  0  0  0
    1.8119    9.0637   26.6766 C   0  0  0  1  0  3  0  0  0  0  0  0
    4.9600    0.8100   26.4490 C   0  0  0  1  0  4  0  0  0  0  0  0
    2.5940    9.3207   25.5450 C   0  0  0  1  0  3  0  0  0  0  0  0
    4.0370   -0.0500   27.3240 C   0  0  0  1  0  4  0  0  0  0  0  0
    6.5530   -2.2816   29.2815 C   0  0  0  1  0  4  0  0  0  0  0  0
    3.9398   -2.4867   28.1644 C   0  0  0  1  0  4  0  0  0  0  0  0
    4.8133   -3.6820   28.5037 C   0  0  0  1  0  4  0  0  0  0  0  0
    3.5580    0.6920   28.5700 C   0  0  0  1  0  4  0  0  0  0  0  0
    4.7240    1.3610   29.2750 C   0  0  0  1  0  4  0  0  0  0  0  0
    3.9605    9.5410   25.6758 C   0  0  0  1  0  3  0  0  0  0  0  0
    4.5424    9.4972   26.9414 C   0  0  0  1  0  3  0  0  0  0  0  0
    5.8324   -1.0103   28.8630 C   0  0  0  1  0  4  0  0  0  0  0  0
    7.5735    2.7162   31.5858 O   0  0  0  1  0  2  0  0  0  0  0  0
    7.1137    4.2092   34.3833 I   0  0  0  1  0  1  0  0  0  0  0  0
    4.2147    9.2234   29.0451 H   0  0  0  1  0  1  0  0  0  0  0  0
    0.5487    8.6065   28.8648 H   0  0  0  1  0  1  0  0  0  0  0  0
    4.7370    2.8836   27.9673 H   0  0  0  1  0  1  0  0  0  0  0  0
    8.3742    3.0930   31.9328 H   0  0  0  1  0  1  0  0  0  0  0  0
    5.0297    6.1498   33.0990 H   0  0  0  1  0  1  0  0  0  0  0  0
    6.8910    3.7259   28.2293 H   0  0  0  1  0  1  0  0  0  0  0  0
    7.2385    2.3670   29.3516 H   0  0  0  1  0  1  0  0  0  0  0  0
    5.3251   -1.6052   26.9527 H   0  0  0  1  0  1  0  0  0  0  0  0
    6.7160    0.7116   27.6824 H   0  0  0  1  0  1  0  0  0  0  0  0
    6.6342    2.1468   26.6055 H   0  0  0  1  0  1  0  0  0  0  0  0
    4.7574    5.1304   28.9773 H   0  0  0  1  0  1  0  0  0  0  0  0
    1.1425    8.5006   31.0659 H   0  0  0  1  0  1  0  0  0  0  0  0
    2.4601    9.6587   30.6817 H   0  0  0  1  0  1  0  0  0  0  0  0
    0.7477    8.8953   26.5589 H   0  0  0  1  0  1  0  0  0  0  0  0
    5.4245    0.1680   25.6867 H   0  0  0  1  0  1  0  0  0  0  0  0
    4.3579    1.5876   25.9568 H   0  0  0  1  0  1  0  0  0  0  0  0
    2.1327    9.3488   24.5651 H   0  0  0  1  0  1  0  0  0  0  0  0
    3.1597   -0.3441   26.7290 H   0  0  0  1  0  1  0  0  0  0  0  0
    7.0725   -2.7107   28.4123 H   0  0  0  1  0  1  0  0  0  0  0  0
    5.8209   -3.0080   29.6650 H   0  0  0  1  0  1  0  0  0  0  0  0
    7.2850   -2.0466   30.0683 H   0  0  0  1  0  1  0  0  0  0  0  0
    3.2721   -2.7495   27.3307 H   0  0  0  1  0  1  0  0  0  0  0  0
    3.3377   -2.2140   29.0447 H   0  0  0  1  0  1  0  0  0  0  0  0
    4.1773   -4.5312   28.7930 H   0  0  0  1  0  1  0  0  0  0  0  0
    5.4813   -3.4230   29.3379 H   0  0  0  1  0  1  0  0  0  0  0  0
    5.4156   -3.9585   27.6246 H   0  0  0  1  0  1  0  0  0  0  0  0
    3.0835   -0.0237   29.2565 H   0  0  0  1  0  1  0  0  0  0  0  0
    2.8259    1.4587   28.2750 H   0  0  0  1  0  1  0  0  0  0  0  0
    4.3473    1.9482   30.1252 H   0  0  0  1  0  1  0  0  0  0  0  0
    5.4199    0.5905   29.6402 H   0  0  0  1  0  1  0  0  0  0  0  0
    4.5674    9.7437   24.8010 H   0  0  0  1  0  1  0  0  0  0  0  0
    5.6084    9.6595   27.0547 H   0  0  0  1  0  1  0  0  0  0  0  0
    5.3149   -0.5846   29.7357 H   0  0  0  1  0  1  0  0  0  0  0  0
    6.5684   -0.2855   28.4838 H   0  0  0  1  0  1  0  0  0  0  0  0
  1 14  1  0  0  0  0
  1 15  1  0  0  0  0
  1 32  1  0  0  0  0
  2  8  1  0  0  0  0
  2  9  1  0  0  0  0
  2 25  1  0  0  0  0
  2 33  1  0  0  0  0
  3 20  1  0  0  0  0
  3 22  1  0  0  0  0
  3 28  1  0  0  0  0
  3 38  1  0  0  0  0
  4 15  2  0  0  0  0
  4 27  1  0  0  0  0
  4 31  1  0  0  0  0
  5  7  2  0  0  0  0
  5 10  1  0  0  0  0
  5 11  1  0  0  0  0
  6  8  1  0  0  0  0
  6 10  2  0  0  0  0
  6 16  1  0  0  0  0
  7 12  1  0  0  0  0
  7 35  1  0  0  0  0
  8 36  1  0  0  0  0
  8 37  1  0  0  0  0
  9 18  1  0  0  0  0
  9 39  1  0  0  0  0
  9 40  1  0  0  0  0
 10 41  1  0  0  0  0
 11 13  3  0  0  0  0
 12 16  2  0  0  0  0
 12 30  1  0  0  0  0
 13 14  1  0  0  0  0
 14 42  1  0  0  0  0
 14 43  1  0  0  0  0
 15 17  1  0  0  0  0
 16 29  1  0  0  0  0
 17 19  2  0  0  0  0
 17 44  1  0  0  0  0
 18 20  1  0  0  0  0
 18 45  1  0  0  0  0
 18 46  1  0  0  0  0
 19 26  1  0  0  0  0
 19 47  1  0  0  0  0
 20 24  1  0  0  0  0
 20 48  1  0  0  0  0
 21 28  1  0  0  0  0
 21 49  1  0  0  0  0
 21 50  1  0  0  0  0
 21 51  1  0  0  0  0
 22 23  1  0  0  0  0
 22 52  1  0  0  0  0
 22 53  1  0  0  0  0
 23 54  1  0  0  0  0
 23 55  1  0  0  0  0
 23 56  1  0  0  0  0
 24 25  1  0  0  0  0
 24 57  1  0  0  0  0
 24 58  1  0  0  0  0
 25 59  1  0  0  0  0
 25 60  1  0  0  0  0
 26 27  2  0  0  0  0
 26 61  1  0  0  0  0
 27 62  1  0  0  0  0
 28 63  1  0  0  0  0
 28 64  1  0  0  0  0
 29 34  1  0  0  0  0
M  END
> <ConfScore>
-0.37061 

$$$$
4agq


 64 66  0  0  0  0  0  0  0  0999 V2000
    9.0574    5.4986   21.5690 N   0  0  0  1  0  3  0  0  0  0  0  0
    5.4320    2.2550   28.3390 N   0  3  0  1  0  4  0  0  0  0  0  0
    4.8039   -1.3070   27.7628 N   0  3  0  1  0  4  0  0  0  0  0  0
   10.1359    3.5352   22.5755 C   0  0  0  1  0  3  0  0  0  0  0  0
    7.6002    5.2743   26.1817 C   0  0  0  1  0  3  0  0  0  0  0  0
    7.0338    4.2334   28.2611 C   0  0  0  1  0  3  0  0  0  0  0  0
    8.0756    6.3691   26.8694 C   0  0  0  1  0  3  0  0  0  0  0  0
    6.4640    3.0610   28.9950 C   0  0  0  1  0  4  0  0  0  0  0  0
    6.0520    1.4770   27.2550 C   0  0  0  1  0  4  0  0  0  0  0  0
    7.0978    4.2025   26.8774 C   0  0  0  1  0  3  0  0  0  0  0  0
    7.6297    5.2542   24.7540 C   0  0  0  1  0  2  0  0  0  0  0  0
    8.0432    6.3940   28.2584 C   0  0  0  1  0  3  0  0  0  0  0  0
    7.7085    5.2488   23.5552 C   0  0  0  1  0  2  0  0  0  0  0  0
    7.7392    5.2283   22.0860 C   0  0  0  1  0  4  0  0  0  0  0  0
   10.1723    4.7146   21.8260 C   0  0  0  1  0  3  0  0  0  0  0  0
    7.5257    5.3245   28.9577 C   0  0  0  1  0  3  0  0  0  0  0  0
   11.4164    5.1148   21.3180 C   0  0  0  1  0  3  0  0  0  0  0  0
    4.9600    0.8100   26.4490 C   0  0  0  1  0  4  0  0  0  0  0  0
   12.5749    4.3640   21.5467 C   0  0  0  1  0  3  0  0  0  0  0  0
    4.0370   -0.0500   27.3240 C   0  0  0  1  0  4  0  0  0  0  0  0
    4.6655   -3.6125   28.7533 C   0  0  0  1  0  4  0  0  0  0  0  0
    5.8033   -1.8417   26.7554 C   0  0  0  1  0  4  0  0  0  0  0  0
    6.5078   -3.0643   27.3175 C   0  0  0  1  0  4  0  0  0  0  0  0
    3.5580    0.6920   28.5700 C   0  0  0  1  0  4  0  0  0  0  0  0
    4.7240    1.3610   29.2750 C   0  0  0  1  0  4  0  0  0  0  0  0
   12.5124    3.1935   22.2943 C   0  0  0  1  0  3  0  0  0  0  0  0
   11.2862    2.7739   22.8068 C   0  0  0  1  0  3  0  0  0  0  0  0
    3.8672   -2.4330   28.2223 C   0  0  0  1  0  4  0  0  0  0  0  0
    7.4983    5.3410   30.3344 O   0  0  0  1  0  2  0  0  0  0  0  0
    8.7937    8.0858   29.3078 I   0  0  0  1  0  1  0  0  0  0  0  0
    9.1906    3.2016   22.9895 H   0  0  0  1  0  1  0  0  0  0  0  0
    9.1794    6.3277   20.9707 H   0  0  0  1  0  1  0  0  0  0  0  0
    4.7370    2.8836   27.9673 H   0  0  0  1  0  1  0  0  0  0  0  0
    6.6061    5.2067   30.6337 H   0  0  0  1  0  1  0  0  0  0  0  0
    8.4769    7.2152   26.3245 H   0  0  0  1  0  1  0  0  0  0  0  0
    7.3017    2.3868   29.2285 H   0  0  0  1  0  1  0  0  0  0  0  0
    6.0298    3.4442   29.9296 H   0  0  0  1  0  1  0  0  0  0  0  0
    5.3413   -1.0306   28.5701 H   0  0  0  1  0  1  0  0  0  0  0  0
    6.7160    0.7116   27.6824 H   0  0  0  1  0  1  0  0  0  0  0  0
    6.6342    2.1468   26.6055 H   0  0  0  1  0  1  0  0  0  0  0  0
    6.7492    3.3272   26.3411 H   0  0  0  1  0  1  0  0  0  0  0  0
    7.4181    4.2347   21.7381 H   0  0  0  1  0  1  0  0  0  0  0  0
    7.0452    5.9910   21.7049 H   0  0  0  1  0  1  0  0  0  0  0  0
   11.4812    6.0259   20.7345 H   0  0  0  1  0  1  0  0  0  0  0  0
    5.4245    0.1680   25.6867 H   0  0  0  1  0  1  0  0  0  0  0  0
    4.3579    1.5876   25.9568 H   0  0  0  1  0  1  0  0  0  0  0  0
   13.5227    4.6967   21.1407 H   0  0  0  1  0  1  0  0  0  0  0  0
    3.1597   -0.3441   26.7290 H   0  0  0  1  0  1  0  0  0  0  0  0
    5.3079   -4.0093   27.9536 H   0  0  0  1  0  1  0  0  0  0  0  0
    3.9749   -4.3994   29.0917 H   0  0  0  1  0  1  0  0  0  0  0  0
    5.2899   -3.2831   29.5971 H   0  0  0  1  0  1  0  0  0  0  0  0
    6.5480   -1.0633   26.5330 H   0  0  0  1  0  1  0  0  0  0  0  0
    5.2749   -2.1191   25.8305 H   0  0  0  1  0  1  0  0  0  0  0  0
    7.2298   -3.4435   26.5798 H   0  0  0  1  0  1  0  0  0  0  0  0
    5.7661   -3.8450   27.5399 H   0  0  0  1  0  1  0  0  0  0  0  0
    7.0389   -2.7899   28.2420 H   0  0  0  1  0  1  0  0  0  0  0  0
    3.0835   -0.0237   29.2565 H   0  0  0  1  0  1  0  0  0  0  0  0
    2.8259    1.4587   28.2750 H   0  0  0  1  0  1  0  0  0  0  0  0
    4.3473    1.9482   30.1252 H   0  0  0  1  0  1  0  0  0  0  0  0
    5.4199    0.5905   29.6402 H   0  0  0  1  0  1  0  0  0  0  0  0
   13.4091    2.6124   22.4755 H   0  0  0  1  0  1  0  0  0  0  0  0
   11.2239    1.8584   23.3844 H   0  0  0  1  0  1  0  0  0  0  0  0
    3.2563   -2.7648   27.3695 H   0  0  0  1  0  1  0  0  0  0  0  0
    3.2095   -2.0535   29.0188 H   0  0  0  1  0  1  0  0  0  0  0  0
  1 14  1  0  0  0  0
  1 15  1  0  0  0  0
  1 32  1  0  0  0  0
  2  8  1  0  0  0  0
  2  9  1  0  0  0  0
  2 25  1  0  0  0  0
  2 33  1  0  0  0  0
  3 20  1  0  0  0  0
  3 22  1  0  0  0  0
  3 28  1  0  0  0  0
  3 38  1  0  0  0  0
  4 15  2  0  0  0  0
  4 27  1  0  0  0  0
  4 31  1  0  0  0  0
  5  7  2  0  0  0  0
  5 10  1  0  0  0  0
  5 11  1  0  0  0  0
  6  8  1  0  0  0  0
  6 10  2  0  0  0  0
  6 16  1  0  0  0  0
  7 12  1  0  0  0  0
  7 35  1  0  0  0  0
  8 36  1  0  0  0  0
  8 37  1  0  0  0  0
  9 18  1  0  0  0  0
  9 39  1  0  0  0  0
  9 40  1  0  0  0  0
 10 41  1  0  0  0  0
 11 13  3  0  0  0  0
 12 16  2  0  0  0  0
 12 30  1  0  0  0  0
 13 14  1  0  0  0  0
 14 42  1  0  0  0  0
 14 43  1  0  0  0  0
 15 17  1  0  0  0  0
 16 29  1  0  0  0  0
 17 19  2  0  0  0  0
 17 44  1  0  0  0  0
 18 20  1  0  0  0  0
 18 45  1  0  0  0  0
 18 46  1  0  0  0  0
 19 26  1  0  0  0  0
 19 47  1  0  0  0  0
 20 24  1  0  0  0  0
 20 48  1  0  0  0  0
 21 28  1  0  0  0  0
 21 49  1  0  0  0  0
 21 50  1  0  0  0  0
 21 51  1  0  0  0  0
 22 23  1  0  0  0  0
 22 52  1  0  0  0  0
 22 53  1  0  0  0  0
 23 54  1  0  0  0  0
 23 55  1  0  0  0  0
 23 56  1  0  0  0  0
 24 25  1  0  0  0  0
 24 57  1  0  0  0  0
 24 58  1  0  0  0  0
 25 59  1  0  0  0  0
 25 60  1  0  0  0  0
 26 27  2  0  0  0  0
 26 61  1  0  0  0  0
 27 62  1  0  0  0  0
 28 63  1  0  0  0  0
 28 64  1  0  0  0  0
 29 34  1  0  0  0  0
M  END
> <ConfScore>
-0.345888 

$$$$
4agq


 64 66  0  0  0  0  0  0  0  0999 V2000
   13.3057    4.9532   26.4981 N   0  0  0  1  0  3  0  0  0  0  0  0
    5.4320    2.2550   28.3390 N   0  3  0  1  0  4  0  0  0  0  0  0
    4.8039   -1.3070   27.7628 N   0  3  0  1  0  4  0  0  0  0  0  0
   14.3516    3.3620   28.0491 C   0  0  0  1  0  3  0  0  0  0  0  0
    8.6033    5.6952   27.3860 C   0  0  0  1  0  3  0  0  0  0  0  0
    6.8799    4.3500   28.3599 C   0  0  0  1  0  3  0  0  0  0  0  0
    7.6896    6.7069   27.1884 C   0  0  0  1  0  3  0  0  0  0  0  0
    6.4640    3.0610   28.9950 C   0  0  0  1  0  4  0  0  0  0  0  0
    6.0520    1.4770   27.2550 C   0  0  0  1  0  4  0  0  0  0  0  0
    8.2023    4.5275   27.9868 C   0  0  0  1  0  3  0  0  0  0  0  0
    9.9591    5.8597   26.9685 C   0  0  0  1  0  2  0  0  0  0  0  0
    6.3685    6.5478   27.5884 C   0  0  0  1  0  3  0  0  0  0  0  0
   11.1103    5.9474   26.6363 C   0  0  0  1  0  2  0  0  0  0  0  0
   12.5056    6.1164   26.2068 C   0  0  0  1  0  4  0  0  0  0  0  0
   13.5575    4.4798   27.7773 C   0  0  0  1  0  3  0  0  0  0  0  0
    5.9613    5.3703   28.1787 C   0  0  0  1  0  3  0  0  0  0  0  0
   12.9869    5.1442   28.8724 C   0  0  0  1  0  3  0  0  0  0  0  0
    4.9600    0.8100   26.4490 C   0  0  0  1  0  4  0  0  0  0  0  0
   13.2054    4.7107   30.1848 C   0  0  0  1  0  3  0  0  0  0  0  0
    4.0370   -0.0500   27.3240 C   0  0  0  1  0  4  0  0  0  0  0  0
    2.8504   -2.8313   27.3433 C   0  0  0  1  0  4  0  0  0  0  0  0
    5.6938   -1.9269   26.7029 C   0  0  0  1  0  4  0  0  0  0  0  0
    6.3064   -3.2153   27.2239 C   0  0  0  1  0  4  0  0  0  0  0  0
    3.5580    0.6920   28.5700 C   0  0  0  1  0  4  0  0  0  0  0  0
    4.7240    1.3610   29.2750 C   0  0  0  1  0  4  0  0  0  0  0  0
   14.0007    3.5969   30.4293 C   0  0  0  1  0  3  0  0  0  0  0  0
   14.5811    2.9222   29.3568 C   0  0  0  1  0  3  0  0  0  0  0  0
    3.8803   -2.3755   28.3641 C   0  0  0  1  0  4  0  0  0  0  0  0
    4.6549    5.2105   28.5839 O   0  0  0  1  0  2  0  0  0  0  0  0
    4.9713    8.1243   27.2894 I   0  0  0  1  0  1  0  0  0  0  0  0
   14.8016    2.8207   27.2240 H   0  0  0  1  0  1  0  0  0  0  0  0
   13.7174    4.4410   25.7055 H   0  0  0  1  0  1  0  0  0  0  0  0
    4.7370    2.8836   27.9673 H   0  0  0  1  0  1  0  0  0  0  0  0
    4.2599    4.4943   28.0994 H   0  0  0  1  0  1  0  0  0  0  0  0
    8.0028    7.6316   26.7186 H   0  0  0  1  0  1  0  0  0  0  0  0
    7.3643    2.4332   29.0731 H   0  0  0  1  0  1  0  0  0  0  0  0
    6.0953    3.3009   30.0026 H   0  0  0  1  0  1  0  0  0  0  0  0
    5.4188   -1.0066   28.5035 H   0  0  0  1  0  1  0  0  0  0  0  0
    6.7160    0.7116   27.6824 H   0  0  0  1  0  1  0  0  0  0  0  0
    6.6342    2.1468   26.6055 H   0  0  0  1  0  1  0  0  0  0  0  0
    8.9245    3.7400   28.1702 H   0  0  0  1  0  1  0  0  0  0  0  0
   12.5235    6.2971   25.1213 H   0  0  0  1  0  1  0  0  0  0  0  0
   12.9361    6.9830   26.7288 H   0  0  0  1  0  1  0  0  0  0  0  0
   12.3634    6.0134   28.6975 H   0  0  0  1  0  1  0  0  0  0  0  0
    5.4245    0.1680   25.6867 H   0  0  0  1  0  1  0  0  0  0  0  0
    4.3579    1.5876   25.9568 H   0  0  0  1  0  1  0  0  0  0  0  0
   12.7528    5.2444   31.0119 H   0  0  0  1  0  1  0  0  0  0  0  0
    3.1597   -0.3441   26.7290 H   0  0  0  1  0  1  0  0  0  0  0  0
    3.3652   -3.2393   26.4613 H   0  0  0  1  0  1  0  0  0  0  0  0
    2.2306   -1.9740   27.0407 H   0  0  0  1  0  1  0  0  0  0  0  0
    2.2114   -3.6085   27.7883 H   0  0  0  1  0  1  0  0  0  0  0  0
    6.4970   -1.2214   26.4438 H   0  0  0  1  0  1  0  0  0  0  0  0
    5.0939   -2.1454   25.8062 H   0  0  0  1  0  1  0  0  0  0  0  0
    6.9494   -3.6560   26.4483 H   0  0  0  1  0  1  0  0  0  0  0  0
    5.5059   -3.9235   27.4828 H   0  0  0  1  0  1  0  0  0  0  0  0
    6.9087   -3.0000   28.1200 H   0  0  0  1  0  1  0  0  0  0  0  0
    3.0835   -0.0237   29.2565 H   0  0  0  1  0  1  0  0  0  0  0  0
    2.8259    1.4587   28.2750 H   0  0  0  1  0  1  0  0  0  0  0  0
    4.3473    1.9482   30.1252 H   0  0  0  1  0  1  0  0  0  0  0  0
    5.4199    0.5905   29.6402 H   0  0  0  1  0  1  0  0  0  0  0  0
   14.1683    3.2574   31.4448 H   0  0  0  1  0  1  0  0  0  0  0  0
   15.2097    2.0571   29.5358 H   0  0  0  1  0  1  0  0  0  0  0  0
    3.3609   -1.9536   29.2376 H   0  0  0  1  0  1  0  0  0  0  0  0
    4.4844   -3.2397   28.6790 H   0  0  0  1  0  1  0  0  0  0  0  0
  1 14  1  0  0  0  0
  1 15  1  0  0  0  0
  1 32  1  0  0  0  0
  2  8  1  0  0  0  0
  2  9  1  0  0  0  0
  2 25  1  0  0  0  0
  2 33  1  0  0  0  0
  3 20  1  0  0  0  0
  3 22  1  0  0  0  0
  3 28  1  0  0  0  0
  3 38  1  0  0  0  0
  4 15  2  0  0  0  0
  4 27  1  0  0  0  0
  4 31  1  0  0  0  0
  5  7  2  0  0  0  0
  5 10  1  0  0  0  0
  5 11  1  0  0  0  0
  6  8  1  0  0  0  0
  6 10  2  0  0  0  0
  6 16  1  0  0  0  0
  7 12  1  0  0  0  0
  7 35  1  0  0  0  0
  8 36  1  0  0  0  0
  8 37  1  0  0  0  0
  9 18  1  0  0  0  0
  9 39  1  0  0  0  0
  9 40  1  0  0  0  0
 10 41  1  0  0  0  0
 11 13  3  0  0  0  0
 12 16  2  0  0  0  0
 12 30  1  0  0  0  0
 13 14  1  0  0  0  0
 14 42  1  0  0  0  0
 14 43  1  0  0  0  0
 15 17  1  0  0  0  0
 16 29  1  0  0  0  0
 17 19  2  0  0  0  0
 17 44  1  0  0  0  0
 18 20  1  0  0  0  0
 18 45  1  0  0  0  0
 18 46  1  0  0  0  0
 19 26  1  0  0  0  0
 19 47  1  0  0  0  0
 20 24  1  0  0  0  0
 20 48  1  0  0  0  0
 21 28  1  0  0  0  0
 21 49  1  0  0  0  0
 21 50  1  0  0  0  0
 21 51  1  0  0  0  0
 22 23  1  0  0  0  0
 22 52  1  0  0  0  0
 22 53  1  0  0  0  0
 23 54  1  0  0  0  0
 23 55  1  0  0  0  0
 23 56  1  0  0  0  0
 24 25  1  0  0  0  0
 24 57  1  0  0  0  0
 24 58  1  0  0  0  0
 25 59  1  0  0  0  0
 25 60  1  0  0  0  0
 26 27  2  0  0  0  0
 26 61  1  0  0  0  0
 27 62  1  0  0  0  0
 28 63  1  0  0  0  0
 28 64  1  0  0  0  0
 29 34  1  0  0  0  0
M  END
> <ConfScore>
-0.345461 

$$$$
4agq


 64 66  0  0  0  0  0  0  0  0999 V2000
   90.3515   89.8779  -47.2388 N   0  0  0  1  0  3  0  0  0  0  0  0
   90.4980   98.3810  -44.6910 N   0  3  0  1  0  4  0  0  0  0  0  0
   92.0470  102.3711  -44.2402 N   0  3  0  1  0  4  0  0  0  0  0  0
   91.5491   90.4505  -49.3050 C   0  0  0  1  0  3  0  0  0  0  0  0
   89.9732   93.5645  -44.1216 C   0  0  0  1  0  3  0  0  0  0  0  0
   89.9319   95.9782  -44.4153 C   0  0  0  1  0  3  0  0  0  0  0  0
   89.8474   93.7101  -42.7340 C   0  0  0  1  0  3  0  0  0  0  0  0
   89.9050   97.1660  -45.3350 C   0  0  0  1  0  4  0  0  0  0  0  0
   89.5430   99.5450  -44.7170 C   0  0  0  1  0  4  0  0  0  0  0  0
   90.0145   94.6899  -44.9587 C   0  0  0  1  0  3  0  0  0  0  0  0
   90.0603   92.2572  -44.6900 C   0  0  0  1  0  2  0  0  0  0  0  0
   89.7694   95.0102  -42.2084 C   0  0  0  1  0  3  0  0  0  0  0  0
   90.1373   91.1808  -45.2180 C   0  0  0  1  0  2  0  0  0  0  0  0
   90.2269   89.8357  -45.8033 C   0  0  0  1  0  4  0  0  0  0  0  0
   91.4478   90.3965  -47.9119 C   0  0  0  1  0  3  0  0  0  0  0  0
   89.8042   96.1642  -43.0135 C   0  0  0  1  0  3  0  0  0  0  0  0
   92.5280   90.8946  -47.1694 C   0  0  0  1  0  3  0  0  0  0  0  0
   90.1750  100.7310  -44.0050 C   0  0  0  1  0  4  0  0  0  0  0  0
   93.6603   91.4282  -47.7947 C   0  0  0  1  0  3  0  0  0  0  0  0
   91.4300  101.0810  -44.8020 C   0  0  0  1  0  4  0  0  0  0  0  0
   91.0112  101.8901  -42.0016 C   0  0  0  1  0  4  0  0  0  0  0  0
   93.3055  102.8464  -44.9401 C   0  0  0  1  0  4  0  0  0  0  0  0
   93.3786  102.2589  -46.3388 C   0  0  0  1  0  4  0  0  0  0  0  0
   92.4510   99.9400  -44.6950 C   0  0  0  1  0  4  0  0  0  0  0  0
   91.8210   98.7070  -45.3220 C   0  0  0  1  0  4  0  0  0  0  0  0
   93.7365   91.4721  -49.1822 C   0  0  0  1  0  3  0  0  0  0  0  0
   92.6737   90.9859  -49.9413 C   0  0  0  1  0  3  0  0  0  0  0  0
   92.2851  102.2943  -42.7257 C   0  0  0  1  0  4  0  0  0  0  0  0
   89.7179   97.4237  -42.4633 O   0  0  0  1  0  2  0  0  0  0  0  0
   89.5906   95.2457  -40.1014 I   0  0  0  1  0  1  0  0  0  0  0  0
   90.7343   90.0663  -49.9090 H   0  0  0  1  0  1  0  0  0  0  0  0
   89.5764   89.4992  -47.8009 H   0  0  0  1  0  1  0  0  0  0  0  0
   90.6653   98.1804  -43.7173 H   0  0  0  1  0  1  0  0  0  0  0  0
   89.9864   97.3890  -41.5522 H   0  0  0  1  0  1  0  0  0  0  0  0
   89.8113   92.8438  -42.0843 H   0  0  0  1  0  1  0  0  0  0  0  0
   90.4802   96.9271  -46.2421 H   0  0  0  1  0  1  0  0  0  0  0  0
   88.8619   97.3812  -45.6079 H   0  0  0  1  0  1  0  0  0  0  0  0
   91.3562  103.0907  -44.3880 H   0  0  0  1  0  1  0  0  0  0  0  0
   88.6097   99.2655  -44.2070 H   0  0  0  1  0  1  0  0  0  0  0  0
   89.3242   99.8170  -45.7598 H   0  0  0  1  0  1  0  0  0  0  0  0
   90.1107   94.5617  -46.0309 H   0  0  0  1  0  1  0  0  0  0  0  0
   91.1074   89.3246  -45.3851 H   0  0  0  1  0  1  0  0  0  0  0  0
   89.3193   89.2729  -45.5422 H   0  0  0  1  0  1  0  0  0  0  0  0
   92.4837   90.8658  -46.0868 H   0  0  0  1  0  1  0  0  0  0  0  0
   90.4412  100.4594  -42.9733 H   0  0  0  1  0  1  0  0  0  0  0  0
   89.4803  101.5835  -43.9926 H   0  0  0  1  0  1  0  0  0  0  0  0
   94.4796   91.8073  -47.1956 H   0  0  0  1  0  1  0  0  0  0  0  0
   91.1612  101.2321  -45.8580 H   0  0  0  1  0  1  0  0  0  0  0  0
   90.6730  100.9123  -42.3742 H   0  0  0  1  0  1  0  0  0  0  0  0
   90.2300  102.6423  -42.1876 H   0  0  0  1  0  1  0  0  0  0  0  0
   91.2083  101.8238  -40.9213 H   0  0  0  1  0  1  0  0  0  0  0  0
   94.1859  102.5248  -44.3644 H   0  0  0  1  0  1  0  0  0  0  0  0
   93.2921  103.9451  -45.0068 H   0  0  0  1  0  1  0  0  0  0  0  0
   94.2942  102.6095  -46.8368 H   0  0  0  1  0  1  0  0  0  0  0  0
   92.5003  102.5796  -46.9176 H   0  0  0  1  0  1  0  0  0  0  0  0
   93.3940  101.1599  -46.2756 H   0  0  0  1  0  1  0  0  0  0  0  0
   92.6877   99.7454  -43.6392 H   0  0  0  1  0  1  0  0  0  0  0  0
   93.3719  100.2075  -45.2346 H   0  0  0  1  0  1  0  0  0  0  0  0
   91.6686   98.8909  -46.3956 H   0  0  0  1  0  1  0  0  0  0  0  0
   92.5007   97.8517  -45.1886 H   0  0  0  1  0  1  0  0  0  0  0  0
   94.6141   91.8819  -49.6686 H   0  0  0  1  0  1  0  0  0  0  0  0
   92.7184   91.0223  -51.0241 H   0  0  0  1  0  1  0  0  0  0  0  0
   92.6106  103.2801  -42.3611 H   0  0  0  1  0  1  0  0  0  0  0  0
   93.0694  101.5503  -42.5204 H   0  0  0  1  0  1  0  0  0  0  0  0
  1 14  1  0  0  0  0
  1 15  1  0  0  0  0
  1 32  1  0  0  0  0
  2  8  1  0  0  0  0
  2  9  1  0  0  0  0
  2 25  1  0  0  0  0
  2 33  1  0  0  0  0
  3 20  1  0  0  0  0
  3 22  1  0  0  0  0
  3 28  1  0  0  0  0
  3 38  1  0  0  0  0
  4 15  2  0  0  0  0
  4 27  1  0  0  0  0
  4 31  1  0  0  0  0
  5  7  2  0  0  0  0
  5 10  1  0  0  0  0
  5 11  1  0  0  0  0
  6  8  1  0  0  0  0
  6 10  2  0  0  0  0
  6 16  1  0  0  0  0
  7 12  1  0  0  0  0
  7 35  1  0  0  0  0
  8 36  1  0  0  0  0
  8 37  1  0  0  0  0
  9 18  1  0  0  0  0
  9 39  1  0  0  0  0
  9 40  1  0  0  0  0
 10 41  1  0  0  0  0
 11 13  3  0  0  0  0
 12 16  2  0  0  0  0
 12 30  1  0  0  0  0
 13 14  1  0  0  0  0
 14 42  1  0  0  0  0
 14 43  1  0  0  0  0
 15 17  1  0  0  0  0
 16 29  1  0  0  0  0
 17 19  2  0  0  0  0
 17 44  1  0  0  0  0
 18 20  1  0  0  0  0
 18 45  1  0  0  0  0
 18 46  1  0  0  0  0
 19 26  1  0  0  0  0
 19 47  1  0  0  0  0
 20 24  1  0  0  0  0
 20 48  1  0  0  0  0
 21 28  1  0  0  0  0
 21 49  1  0  0  0  0
 21 50  1  0  0  0  0
 21 51  1  0  0  0  0
 22 23  1  0  0  0  0
 22 52  1  0  0  0  0
 22 53  1  0  0  0  0
 23 54  1  0  0  0  0
 23 55  1  0  0  0  0
 23 56  1  0  0  0  0
 24 25  1  0  0  0  0
 24 57  1  0  0  0  0
 24 58  1  0  0  0  0
 25 59  1  0  0  0  0
 25 60  1  0  0  0  0
 26 27  2  0  0  0  0
 26 61  1  0  0  0  0
 27 62  1  0  0  0  0
 28 63  1  0  0  0  0
 28 64  1  0  0  0  0
 29 34  1  0  0  0  0
M  END
> <ConfScore>
-0.341558 

$$$$
4agq


 64 66  0  0  0  0  0  0  0  0999 V2000
   90.3515   89.8779  -47.2388 N   0  0  0  1  0  3  0  0  0  0  0  0
   90.4980   98.3810  -44.6910 N   0  3  0  1  0  4  0  0  0  0  0  0
   92.0470  102.3711  -44.2402 N   0  3  0  1  0  4  0  0  0  0  0  0
   91.6572   90.1122  -49.3056 C   0  0  0  1  0  3  0  0  0  0  0  0
   89.9732   93.5645  -44.1216 C   0  0  0  1  0  3  0  0  0  0  0  0
   89.9319   95.9782  -44.4153 C   0  0  0  1  0  3  0  0  0  0  0  0
   89.8474   93.7101  -42.7340 C   0  0  0  1  0  3  0  0  0  0  0  0
   89.9050   97.1660  -45.3350 C   0  0  0  1  0  4  0  0  0  0  0  0
   89.5430   99.5450  -44.7170 C   0  0  0  1  0  4  0  0  0  0  0  0
   90.0145   94.6899  -44.9587 C   0  0  0  1  0  3  0  0  0  0  0  0
   90.0603   92.2572  -44.6900 C   0  0  0  1  0  2  0  0  0  0  0  0
   89.7694   95.0102  -42.2084 C   0  0  0  1  0  3  0  0  0  0  0  0
   90.1373   91.1808  -45.2180 C   0  0  0  1  0  2  0  0  0  0  0  0
   90.2269   89.8357  -45.8033 C   0  0  0  1  0  4  0  0  0  0  0  0
   91.5448   90.0924  -47.9124 C   0  0  0  1  0  3  0  0  0  0  0  0
   89.8042   96.1642  -43.0135 C   0  0  0  1  0  3  0  0  0  0  0  0
   92.7168   90.2975  -47.1703 C   0  0  0  1  0  3  0  0  0  0  0  0
   90.1750  100.7310  -44.0050 C   0  0  0  1  0  4  0  0  0  0  0  0
   93.9489   90.5175  -47.7962 C   0  0  0  1  0  3  0  0  0  0  0  0
   91.4300  101.0810  -44.8020 C   0  0  0  1  0  4  0  0  0  0  0  0
   91.1782  101.7704  -41.9599 C   0  0  0  1  0  4  0  0  0  0  0  0
   93.2445  102.9032  -45.0035 C   0  0  0  1  0  4  0  0  0  0  0  0
   93.2429  102.3600  -46.4218 C   0  0  0  1  0  4  0  0  0  0  0  0
   92.4510   99.9400  -44.6950 C   0  0  0  1  0  4  0  0  0  0  0  0
   91.8210   98.7070  -45.3220 C   0  0  0  1  0  4  0  0  0  0  0  0
   94.0344   90.5341  -49.1837 C   0  0  0  1  0  3  0  0  0  0  0  0
   92.8822   90.3359  -49.9424 C   0  0  0  1  0  3  0  0  0  0  0  0
   92.3843  102.2562  -42.7471 C   0  0  0  1  0  4  0  0  0  0  0  0
   89.7179   97.4237  -42.4633 O   0  0  0  1  0  2  0  0  0  0  0  0
   89.5906   95.2457  -40.1014 I   0  0  0  1  0  1  0  0  0  0  0  0
   90.7710   89.9492  -49.9091 H   0  0  0  1  0  1  0  0  0  0  0  0
   89.4996   89.7406  -47.8004 H   0  0  0  1  0  1  0  0  0  0  0  0
   90.6653   98.1804  -43.7173 H   0  0  0  1  0  1  0  0  0  0  0  0
   89.9864   97.3890  -41.5522 H   0  0  0  1  0  1  0  0  0  0  0  0
   89.8113   92.8438  -42.0843 H   0  0  0  1  0  1  0  0  0  0  0  0
   90.4802   96.9271  -46.2421 H   0  0  0  1  0  1  0  0  0  0  0  0
   88.8619   97.3812  -45.6079 H   0  0  0  1  0  1  0  0  0  0  0  0
   91.3289  103.0745  -44.3209 H   0  0  0  1  0  1  0  0  0  0  0  0
   88.6097   99.2655  -44.2070 H   0  0  0  1  0  1  0  0  0  0  0  0
   89.3242   99.8170  -45.7598 H   0  0  0  1  0  1  0  0  0  0  0  0
   90.1107   94.5617  -46.0309 H   0  0  0  1  0  1  0  0  0  0  0  0
   91.1074   89.3246  -45.3851 H   0  0  0  1  0  1  0  0  0  0  0  0
   89.3193   89.2729  -45.5422 H   0  0  0  1  0  1  0  0  0  0  0  0
   92.6662   90.2859  -46.0877 H   0  0  0  1  0  1  0  0  0  0  0  0
   90.4412  100.4594  -42.9733 H   0  0  0  1  0  1  0  0  0  0  0  0
   89.4803  101.5835  -43.9926 H   0  0  0  1  0  1  0  0  0  0  0  0
   94.8381   90.6744  -47.1974 H   0  0  0  1  0  1  0  0  0  0  0  0
   91.1612  101.2321  -45.8580 H   0  0  0  1  0  1  0  0  0  0  0  0
   90.8603  100.7906  -42.3450 H   0  0  0  1  0  1  0  0  0  0  0  0
   90.3544  102.4914  -42.0702 H   0  0  0  1  0  1  0  0  0  0  0  0
   91.4465  101.6781  -40.8969 H   0  0  0  1  0  1  0  0  0  0  0  0
   94.1685  102.5902  -44.4954 H   0  0  0  1  0  1  0  0  0  0  0  0
   93.1971  104.0025  -45.0345 H   0  0  0  1  0  1  0  0  0  0  0  0
   94.1147  102.7515  -46.9659 H   0  0  0  1  0  1  0  0  0  0  0  0
   92.3208  102.6723  -46.9331 H   0  0  0  1  0  1  0  0  0  0  0  0
   93.2919  101.2605  -46.3945 H   0  0  0  1  0  1  0  0  0  0  0  0
   92.6877   99.7454  -43.6392 H   0  0  0  1  0  1  0  0  0  0  0  0
   93.3719  100.2075  -45.2346 H   0  0  0  1  0  1  0  0  0  0  0  0
   91.6686   98.8909  -46.3956 H   0  0  0  1  0  1  0  0  0  0  0  0
   92.5007   97.8517  -45.1886 H   0  0  0  1  0  1  0  0  0  0  0  0
   94.9883   90.7008  -49.6705 H   0  0  0  1  0  1  0  0  0  0  0  0
   92.9353   90.3547  -51.0252 H   0  0  0  1  0  1  0  0  0  0  0  0
   92.6888  103.2435  -42.3688 H   0  0  0  1  0  1  0  0  0  0  0  0
   93.2121  101.5428  -42.6175 H   0  0  0  1  0  1  0  0  0  0  0  0
  1 14  1  0  0  0  0
  1 15  1  0  0  0  0
  1 32  1  0  0  0  0
  2  8  1  0  0  0  0
  2  9  1  0  0  0  0
  2 25  1  0  0  0  0
  2 33  1  0  0  0  0
  3 20  1  0  0  0  0
  3 22  1  0  0  0  0
  3 28  1  0  0  0  0
  3 38  1  0  0  0  0
  4 15  2  0  0  0  0
  4 27  1  0  0  0  0
  4 31  1  0  0  0  0
  5  7  2  0  0  0  0
  5 10  1  0  0  0  0
  5 11  1  0  0  0  0
  6  8  1  0  0  0  0
  6 10  2  0  0  0  0
  6 16  1  0  0  0  0
  7 12  1  0  0  0  0
  7 35  1  0  0  0  0
  8 36  1  0  0  0  0
  8 37  1  0  0  0  0
  9 18  1  0  0  0  0
  9 39  1  0  0  0  0
  9 40  1  0  0  0  0
 10 41  1  0  0  0  0
 11 13  3  0  0  0  0
 12 16  2  0  0  0  0
 12 30  1  0  0  0  0
 13 14  1  0  0  0  0
 14 42  1  0  0  0  0
 14 43  1  0  0  0  0
 15 17  1  0  0  0  0
 16 29  1  0  0  0  0
 17 19  2  0  0  0  0
 17 44  1  0  0  0  0
 18 20  1  0  0  0  0
 18 45  1  0  0  0  0
 18 46  1  0  0  0  0
 19 26  1  0  0  0  0
 19 47  1  0  0  0  0
 20 24  1  0  0  0  0
 20 48  1  0  0  0  0
 21 28  1  0  0  0  0
 21 49  1  0  0  0  0
 21 50  1  0  0  0  0
 21 51  1  0  0  0  0
 22 23  1  0  0  0  0
 22 52  1  0  0  0  0
 22 53  1  0  0  0  0
 23 54  1  0  0  0  0
 23 55  1  0  0  0  0
 23 56  1  0  0  0  0
 24 25  1  0  0  0  0
 24 57  1  0  0  0  0
 24 58  1  0  0  0  0
 25 59  1  0  0  0  0
 25 60  1  0  0  0  0
 26 27  2  0  0  0  0
 26 61  1  0  0  0  0
 27 62  1  0  0  0  0
 28 63  1  0  0  0  0
 28 64  1  0  0  0  0
 29 34  1  0  0  0  0
M  END
> <ConfScore>
-0.29989 

$$$$
4agq


 64 66  0  0  0  0  0  0  0  0999 V2000
   90.3515   89.8779  -47.2388 N   0  0  0  1  0  3  0  0  0  0  0  0
   90.4980   98.3810  -44.6910 N   0  3  0  1  0  4  0  0  0  0  0  0
   92.0470  102.3711  -44.2402 N   0  3  0  1  0  4  0  0  0  0  0  0
   92.7672   90.3192  -47.2733 C   0  0  0  1  0  3  0  0  0  0  0  0
   89.9732   93.5645  -44.1216 C   0  0  0  1  0  3  0  0  0  0  0  0
   89.9319   95.9782  -44.4153 C   0  0  0  1  0  3  0  0  0  0  0  0
   89.8474   93.7101  -42.7340 C   0  0  0  1  0  3  0  0  0  0  0  0
   89.9050   97.1660  -45.3350 C   0  0  0  1  0  4  0  0  0  0  0  0
   89.5430   99.5450  -44.7170 C   0  0  0  1  0  4  0  0  0  0  0  0
   90.0145   94.6899  -44.9587 C   0  0  0  1  0  3  0  0  0  0  0  0
   90.0603   92.2572  -44.6900 C   0  0  0  1  0  2  0  0  0  0  0  0
   89.7694   95.0102  -42.2084 C   0  0  0  1  0  3  0  0  0  0  0  0
   90.1373   91.1808  -45.2180 C   0  0  0  1  0  2  0  0  0  0  0  0
   90.2269   89.8357  -45.8033 C   0  0  0  1  0  4  0  0  0  0  0  0
   91.5448   90.0924  -47.9124 C   0  0  0  1  0  3  0  0  0  0  0  0
   89.8042   96.1642  -43.0135 C   0  0  0  1  0  3  0  0  0  0  0  0
   91.5436   90.0907  -49.3146 C   0  0  0  1  0  3  0  0  0  0  0  0
   90.1750  100.7310  -44.0050 C   0  0  0  1  0  4  0  0  0  0  0  0
   92.7171   90.3029  -50.0467 C   0  0  0  1  0  3  0  0  0  0  0  0
   91.4300  101.0810  -44.8020 C   0  0  0  1  0  4  0  0  0  0  0  0
   91.1782  101.7704  -41.9599 C   0  0  0  1  0  4  0  0  0  0  0  0
   93.2445  102.9032  -45.0035 C   0  0  0  1  0  4  0  0  0  0  0  0
   93.2429  102.3600  -46.4218 C   0  0  0  1  0  4  0  0  0  0  0  0
   92.4510   99.9400  -44.6950 C   0  0  0  1  0  4  0  0  0  0  0  0
   91.8210   98.7070  -45.3220 C   0  0  0  1  0  4  0  0  0  0  0  0
   93.9210   90.5247  -49.3876 C   0  0  0  1  0  3  0  0  0  0  0  0
   93.9475   90.5277  -47.9942 C   0  0  0  1  0  3  0  0  0  0  0  0
   92.3843  102.2562  -42.7471 C   0  0  0  1  0  4  0  0  0  0  0  0
   89.7179   97.4237  -42.4633 O   0  0  0  1  0  2  0  0  0  0  0  0
   89.5906   95.2457  -40.1014 I   0  0  0  1  0  1  0  0  0  0  0  0
   92.8015   90.3346  -46.1894 H   0  0  0  1  0  1  0  0  0  0  0  0
   89.4996   89.7406  -47.8004 H   0  0  0  1  0  1  0  0  0  0  0  0
   90.6653   98.1804  -43.7173 H   0  0  0  1  0  1  0  0  0  0  0  0
   89.9864   97.3890  -41.5522 H   0  0  0  1  0  1  0  0  0  0  0  0
   89.8113   92.8438  -42.0843 H   0  0  0  1  0  1  0  0  0  0  0  0
   90.4802   96.9271  -46.2421 H   0  0  0  1  0  1  0  0  0  0  0  0
   88.8619   97.3812  -45.6079 H   0  0  0  1  0  1  0  0  0  0  0  0
   91.3289  103.0745  -44.3209 H   0  0  0  1  0  1  0  0  0  0  0  0
   88.6097   99.2655  -44.2070 H   0  0  0  1  0  1  0  0  0  0  0  0
   89.3242   99.8170  -45.7598 H   0  0  0  1  0  1  0  0  0  0  0  0
   90.1107   94.5617  -46.0309 H   0  0  0  1  0  1  0  0  0  0  0  0
   91.1074   89.3246  -45.3851 H   0  0  0  1  0  1  0  0  0  0  0  0
   89.3193   89.2729  -45.5422 H   0  0  0  1  0  1  0  0  0  0  0  0
   90.6123   89.9205  -49.8425 H   0  0  0  1  0  1  0  0  0  0  0  0
   90.4412  100.4594  -42.9733 H   0  0  0  1  0  1  0  0  0  0  0  0
   89.4803  101.5835  -43.9926 H   0  0  0  1  0  1  0  0  0  0  0  0
   92.6866   90.2948  -51.1296 H   0  0  0  1  0  1  0  0  0  0  0  0
   91.1612  101.2321  -45.8580 H   0  0  0  1  0  1  0  0  0  0  0  0
   90.8603  100.7906  -42.3450 H   0  0  0  1  0  1  0  0  0  0  0  0
   90.3544  102.4914  -42.0702 H   0  0  0  1  0  1  0  0  0  0  0  0
   91.4465  101.6781  -40.8969 H   0  0  0  1  0  1  0  0  0  0  0  0
   94.1685  102.5902  -44.4954 H   0  0  0  1  0  1  0  0  0  0  0  0
   93.1971  104.0025  -45.0345 H   0  0  0  1  0  1  0  0  0  0  0  0
   94.1147  102.7515  -46.9659 H   0  0  0  1  0  1  0  0  0  0  0  0
   92.3208  102.6723  -46.9331 H   0  0  0  1  0  1  0  0  0  0  0  0
   93.2919  101.2605  -46.3945 H   0  0  0  1  0  1  0  0  0  0  0  0
   92.6877   99.7454  -43.6392 H   0  0  0  1  0  1  0  0  0  0  0  0
   93.3719  100.2075  -45.2346 H   0  0  0  1  0  1  0  0  0  0  0  0
   91.6686   98.8909  -46.3956 H   0  0  0  1  0  1  0  0  0  0  0  0
   92.5007   97.8517  -45.1886 H   0  0  0  1  0  1  0  0  0  0  0  0
   94.8304   90.6927  -49.9527 H   0  0  0  1  0  1  0  0  0  0  0  0
   94.8820   90.6916  -47.4693 H   0  0  0  1  0  1  0  0  0  0  0  0
   92.6888  103.2435  -42.3688 H   0  0  0  1  0  1  0  0  0  0  0  0
   93.2121  101.5428  -42.6175 H   0  0  0  1  0  1  0  0  0  0  0  0
  1 14  1  0  0  0  0
  1 15  1  0  0  0  0
  1 32  1  0  0  0  0
  2  8  1  0  0  0  0
  2  9  1  0  0  0  0
  2 25  1  0  0  0  0
  2 33  1  0  0  0  0
  3 20  1  0  0  0  0
  3 22  1  0  0  0  0
  3 28  1  0  0  0  0
  3 38  1  0  0  0  0
  4 15  2  0  0  0  0
  4 27  1  0  0  0  0
  4 31  1  0  0  0  0
  5  7  2  0  0  0  0
  5 10  1  0  0  0  0
  5 11  1  0  0  0  0
  6  8  1  0  0  0  0
  6 10  2  0  0  0  0
  6 16  1  0  0  0  0
  7 12  1  0  0  0  0
  7 35  1  0  0  0  0
  8 36  1  0  0  0  0
  8 37  1  0  0  0  0
  9 18  1  0  0  0  0
  9 39  1  0  0  0  0
  9 40  1  0  0  0  0
 10 41  1  0  0  0  0
 11 13  3  0  0  0  0
 12 16  2  0  0  0  0
 12 30  1  0  0  0  0
 13 14  1  0  0  0  0
 14 42  1  0  0  0  0
 14 43  1  0  0  0  0
 15 17  1  0  0  0  0
 16 29  1  0  0  0  0
 17 19  2  0  0  0  0
 17 44  1  0  0  0  0
 18 20  1  0  0  0  0
 18 45  1  0  0  0  0
 18 46  1  0  0  0  0
 19 26  1  0  0  0  0
 19 47  1  0  0  0  0
 20 24  1  0  0  0  0
 20 48  1  0  0  0  0
 21 28  1  0  0  0  0
 21 49  1  0  0  0  0
 21 50  1  0  0  0  0
 21 51  1  0  0  0  0
 22 23  1  0  0  0  0
 22 52  1  0  0  0  0
 22 53  1  0  0  0  0
 23 54  1  0  0  0  0
 23 55  1  0  0  0  0
 23 56  1  0  0  0  0
 24 25  1  0  0  0  0
 24 57  1  0  0  0  0
 24 58  1  0  0  0  0
 25 59  1  0  0  0  0
 25 60  1  0  0  0  0
 26 27  2  0  0  0  0
 26 61  1  0  0  0  0
 27 62  1  0  0  0  0
 28 63  1  0  0  0  0
 28 64  1  0  0  0  0
 29 34  1  0  0  0  0
M  END
> <ConfScore>
-0.29989 

$$$$
