4agm


 47 48  0  0  0  0  0  0  0  0999 V2000
  123.9590  107.7800  -44.6740 N   0  3  0  1  0  4  0  0  0  0  0  0
  125.6880  111.7520  -44.3740 N   0  3  0  1  0  4  0  0  0  0  0  0
  124.2960  102.9380  -45.1470 C   0  0  0  1  0  3  0  0  0  0  0  0
  123.8390  105.3020  -44.8090 C   0  0  0  1  0  3  0  0  0  0  0  0
  124.6860  102.8000  -43.8090 C   0  0  0  1  0  3  0  0  0  0  0  0
  123.3160  106.6050  -45.3430 C   0  0  0  1  0  4  0  0  0  0  0  0
  123.0630  108.9900  -44.6940 C   0  0  0  1  0  4  0  0  0  0  0  0
  123.8740  104.1800  -45.6460 C   0  0  0  1  0  3  0  0  0  0  0  0
  124.6470  103.9380  -42.9870 C   0  0  0  1  0  3  0  0  0  0  0  0
  124.2280  105.2000  -43.4470 C   0  0  0  1  0  3  0  0  0  0  0  0
  123.7430  110.1330  -43.9560 C   0  0  0  1  0  4  0  0  0  0  0  0
  125.0240  110.4320  -44.7320 C   0  0  0  1  0  4  0  0  0  0  0  0
  126.6390  112.1880  -45.4750 C   0  0  0  1  0  4  0  0  0  0  0  0
  126.7080  113.6960  -45.6440 C   0  0  0  1  0  4  0  0  0  0  0  0
  126.3910  111.7080  -43.0350 C   0  0  0  1  0  4  0  0  0  0  0  0
  126.3340  113.0310  -42.2830 C   0  0  0  1  0  4  0  0  0  0  0  0
  125.9860  109.2400  -44.6290 C   0  0  0  1  0  4  0  0  0  0  0  0
  125.3050  108.0490  -45.2830 C   0  0  0  1  0  4  0  0  0  0  0  0
  124.2210  106.3180  -42.6590 O   0  0  0  1  0  2  0  0  0  0  0  0
  124.3440  101.2870  -46.4710 I   0  0  0  1  0  1  0  0  0  0  0  0
  125.2020  103.7330  -40.9520 I   0  0  0  1  0  1  0  0  0  0  0  0
  124.1080  107.5360  -43.7070 H   0  0  0  1  0  1  0  0  0  0  0  0
  124.5040  106.0870  -41.7820 H   0  0  0  1  0  1  0  0  0  0  0  0
  125.0100  101.8420  -43.4190 H   0  0  0  1  0  1  0  0  0  0  0  0
  122.2290  106.6490  -45.1730 H   0  0  0  1  0  1  0  0  0  0  0  0
  123.5200  106.6550  -46.4230 H   0  0  0  1  0  1  0  0  0  0  0  0
  124.9590  112.4460  -44.3070 H   0  0  0  1  0  1  0  0  0  0  0  0
  122.1100  108.7500  -44.2000 H   0  0  0  1  0  1  0  0  0  0  0  0
  122.8710  109.2880  -45.7350 H   0  0  0  1  0  1  0  0  0  0  0  0
  123.5740  104.2710  -46.6840 H   0  0  0  1  0  1  0  0  0  0  0  0
  123.9820  109.8340  -42.9250 H   0  0  0  1  0  1  0  0  0  0  0  0
  123.0910  111.0190  -43.9380 H   0  0  0  1  0  1  0  0  0  0  0  0
  124.7340  110.5160  -45.7890 H   0  0  0  1  0  1  0  0  0  0  0  0
  126.3030  111.7450  -46.4250 H   0  0  0  1  0  1  0  0  0  0  0  0
  127.6460  111.8170  -45.2350 H   0  0  0  1  0  1  0  0  0  0  0  0
  127.4110  113.9420  -46.4540 H   0  0  0  1  0  1  0  0  0  0  0  0
  127.0530  114.1560  -44.7060 H   0  0  0  1  0  1  0  0  0  0  0  0
  125.7090  114.0830  -45.8960 H   0  0  0  1  0  1  0  0  0  0  0  0
  127.4460  111.4470  -43.2030 H   0  0  0  1  0  1  0  0  0  0  0  0
  125.9150  110.9330  -42.4160 H   0  0  0  1  0  1  0  0  0  0  0  0
  126.8610  112.9310  -41.3230 H   0  0  0  1  0  1  0  0  0  0  0  0
  125.2840  113.3020  -42.0970 H   0  0  0  1  0  1  0  0  0  0  0  0
  126.8140  113.8170  -42.8840 H   0  0  0  1  0  1  0  0  0  0  0  0
  126.1990  109.0180  -43.5740 H   0  0  0  1  0  1  0  0  0  0  0  0
  126.9260  109.4690  -45.1530 H   0  0  0  1  0  1  0  0  0  0  0  0
  125.1760  108.2560  -46.3560 H   0  0  0  1  0  1  0  0  0  0  0  0
  125.9390  107.1600  -45.1550 H   0  0  0  1  0  1  0  0  0  0  0  0
  1  6  1  0  0  0  0
  1  7  1  0  0  0  0
  1 18  1  0  0  0  0
  1 22  1  0  0  0  0
  2 12  1  0  0  0  0
  2 13  1  0  0  0  0
  2 15  1  0  0  0  0
  2 27  1  0  0  0  0
  3  5  2  0  0  0  0
  3  8  1  0  0  0  0
  3 20  1  0  0  0  0
  4  6  1  0  0  0  0
  4  8  2  0  0  0  0
  4 10  1  0  0  0  0
  5  9  1  0  0  0  0
  5 24  1  0  0  0  0
  6 25  1  0  0  0  0
  6 26  1  0  0  0  0
  7 11  1  0  0  0  0
  7 28  1  0  0  0  0
  7 29  1  0  0  0  0
  8 30  1  0  0  0  0
  9 10  2  0  0  0  0
  9 21  1  0  0  0  0
 10 19  1  0  0  0  0
 11 12  1  0  0  0  0
 11 31  1  0  0  0  0
 11 32  1  0  0  0  0
 12 17  1  0  0  0  0
 12 33  1  0  0  0  0
 13 14  1  0  0  0  0
 13 34  1  0  0  0  0
 13 35  1  0  0  0  0
 14 36  1  0  0  0  0
 14 37  1  0  0  0  0
 14 38  1  0  0  0  0
 15 16  1  0  0  0  0
 15 39  1  0  0  0  0
 15 40  1  0  0  0  0
 16 41  1  0  0  0  0
 16 42  1  0  0  0  0
 16 43  1  0  0  0  0
 17 18  1  0  0  0  0
 17 44  1  0  0  0  0
 17 45  1  0  0  0  0
 18 46  1  0  0  0  0
 18 47  1  0  0  0  0
 19 23  1  0  0  0  0
M  END
$$$$
