4agn


 53 54  0  0  0  0  0  0  0  0999 V2000
  123.9490  107.6520  -44.6590 N   0  3  0  1  0  4  0  0  0  0  0  0
  125.5290  111.6900  -44.2880 N   0  3  0  1  0  4  0  0  0  0  0  0
  124.4510  102.8730  -45.3010 C   0  0  0  1  0  3  0  0  0  0  0  0
  123.8940  105.1950  -44.8770 C   0  0  0  1  0  3  0  0  0  0  0  0
  124.8110  102.7120  -43.9530 C   0  0  0  1  0  3  0  0  0  0  0  0
  123.3640  106.5050  -45.3940 C   0  0  0  1  0  4  0  0  0  0  0  0
  123.0140  108.8340  -44.7100 C   0  0  0  1  0  4  0  0  0  0  0  0
  123.9880  104.1200  -45.7620 C   0  0  0  1  0  3  0  0  0  0  0  0
  124.7030  103.8190  -43.0880 C   0  0  0  1  0  3  0  0  0  0  0  0
  124.2450  105.0730  -43.5100 C   0  0  0  1  0  3  0  0  0  0  0  0
  123.6210  109.9990  -43.9480 C   0  0  0  1  0  4  0  0  0  0  0  0
  124.9020  110.3390  -44.7030 C   0  0  0  1  0  4  0  0  0  0  0  0
  126.6190  111.6440  -43.2240 C   0  0  0  1  0  4  0  0  0  0  0  0
  127.6400  112.7570  -43.4090 C   0  0  0  1  0  4  0  0  0  0  0  0
  124.4280  112.7050  -43.9190 C   0  0  0  1  0  4  0  0  0  0  0  0
  124.4660  112.9970  -42.4280 C   0  0  0  1  0  4  0  0  0  0  0  0
  125.9160  109.1940  -44.5320 C   0  0  0  1  0  4  0  0  0  0  0  0
  125.3110  107.9640  -45.2000 C   0  0  0  1  0  4  0  0  0  0  0  0
  124.5440  101.8070  -46.2480 C   0  0  0  1  0  2  0  0  0  0  0  0
  124.6320  100.9140  -47.0440 C   0  0  0  1  0  2  0  0  0  0  0  0
  124.7410   99.8220  -48.0130 C   0  0  0  1  0  4  0  0  0  0  0  0
  124.1550  106.1540  -42.6830 O   0  0  0  1  0  2  0  0  0  0  0  0
  124.8300  100.3430  -49.3340 O   0  0  0  1  0  2  0  0  0  0  0  0
  125.2080  103.5830  -41.0330 I   0  0  0  1  0  1  0  0  0  0  0  0
  124.0560  107.3880  -43.6920 H   0  0  0  1  0  1  0  0  0  0  0  0
  124.4250  105.9050  -41.8070 H   0  0  0  1  0  1  0  0  0  0  0  0
  125.1650  101.7560  -43.5860 H   0  0  0  1  0  1  0  0  0  0  0  0
  122.2710  106.5220  -45.2720 H   0  0  0  1  0  1  0  0  0  0  0  0
  123.6150  106.5970  -46.4610 H   0  0  0  1  0  1  0  0  0  0  0  0
  125.9800  112.0440  -45.1170 H   0  0  0  1  0  1  0  0  0  0  0  0
  122.0520  108.5590  -44.2530 H   0  0  0  1  0  1  0  0  0  0  0  0
  122.8510  109.1270  -45.7580 H   0  0  0  1  0  1  0  0  0  0  0  0
  123.7040  104.2440  -46.8010 H   0  0  0  1  0  1  0  0  0  0  0  0
  123.8480  109.7070  -42.9120 H   0  0  0  1  0  1  0  0  0  0  0  0
  122.9350  110.8590  -43.9450 H   0  0  0  1  0  1  0  0  0  0  0  0
  124.6480  110.4120  -45.7710 H   0  0  0  1  0  1  0  0  0  0  0  0
  127.1350  110.6750  -43.2840 H   0  0  0  1  0  1  0  0  0  0  0  0
  126.1530  111.7510  -42.2330 H   0  0  0  1  0  1  0  0  0  0  0  0
  128.4050  112.6870  -42.6230 H   0  0  0  1  0  1  0  0  0  0  0  0
  127.1350  113.7320  -43.3440 H   0  0  0  1  0  1  0  0  0  0  0  0
  128.1170  112.6570  -44.3950 H   0  0  0  1  0  1  0  0  0  0  0  0
  123.4440  112.2870  -44.1820 H   0  0  0  1  0  1  0  0  0  0  0  0
  124.5910  113.6390  -44.4760 H   0  0  0  1  0  1  0  0  0  0  0  0
  123.6770  113.7210  -42.1760 H   0  0  0  1  0  1  0  0  0  0  0  0
  125.4470  113.4160  -42.1620 H   0  0  0  1  0  1  0  0  0  0  0  0
  124.3010  112.0650  -41.8680 H   0  0  0  1  0  1  0  0  0  0  0  0
  126.0880  108.9980  -43.4630 H   0  0  0  1  0  1  0  0  0  0  0  0
  126.8680  109.4570  -45.0160 H   0  0  0  1  0  1  0  0  0  0  0  0
  125.2310  108.1480  -46.2820 H   0  0  0  1  0  1  0  0  0  0  0  0
  125.9710  107.1020  -45.0220 H   0  0  0  1  0  1  0  0  0  0  0  0
  123.8530   99.1780  -47.9360 H   0  0  0  1  0  1  0  0  0  0  0  0
  125.6430   99.2310  -47.7940 H   0  0  0  1  0  1  0  0  0  0  0  0
  124.9000   99.6250  -49.9520 H   0  0  0  1  0  1  0  0  0  0  0  0
  1  6  1  0  0  0  0
  1  7  1  0  0  0  0
  1 18  1  0  0  0  0
  1 25  1  0  0  0  0
  2 12  1  0  0  0  0
  2 13  1  0  0  0  0
  2 15  1  0  0  0  0
  2 30  1  0  0  0  0
  3  5  2  0  0  0  0
  3  8  1  0  0  0  0
  3 19  1  0  0  0  0
  4  6  1  0  0  0  0
  4  8  2  0  0  0  0
  4 10  1  0  0  0  0
  5  9  1  0  0  0  0
  5 27  1  0  0  0  0
  6 28  1  0  0  0  0
  6 29  1  0  0  0  0
  7 11  1  0  0  0  0
  7 31  1  0  0  0  0
  7 32  1  0  0  0  0
  8 33  1  0  0  0  0
  9 10  2  0  0  0  0
  9 24  1  0  0  0  0
 10 22  1  0  0  0  0
 11 12  1  0  0  0  0
 11 34  1  0  0  0  0
 11 35  1  0  0  0  0
 12 17  1  0  0  0  0
 12 36  1  0  0  0  0
 13 14  1  0  0  0  0
 13 37  1  0  0  0  0
 13 38  1  0  0  0  0
 14 39  1  0  0  0  0
 14 40  1  0  0  0  0
 14 41  1  0  0  0  0
 15 16  1  0  0  0  0
 15 42  1  0  0  0  0
 15 43  1  0  0  0  0
 16 44  1  0  0  0  0
 16 45  1  0  0  0  0
 16 46  1  0  0  0  0
 17 18  1  0  0  0  0
 17 47  1  0  0  0  0
 17 48  1  0  0  0  0
 18 49  1  0  0  0  0
 18 50  1  0  0  0  0
 19 20  3  0  0  0  0
 20 21  1  0  0  0  0
 21 23  1  0  0  0  0
 21 51  1  0  0  0  0
 21 52  1  0  0  0  0
 22 26  1  0  0  0  0
 23 53  1  0  0  0  0
M  END
$$$$
