4agp


 63 65  0  0  0  0  0  0  0  0999 V2000
  124.0460  107.7170  -44.7230 N   0  3  0  1  0  4  0  0  0  0  0  0
  125.5080  111.7370  -44.1130 N   0  3  0  1  0  4  0  0  0  0  0  0
  124.5110  102.8950  -45.2560 C   0  0  0  1  0  3  0  0  0  0  0  0
  124.6220  101.7890  -46.1620 C   0  0  0  1  0  2  0  0  0  0  0  0
  124.7120  100.9000  -46.9560 C   0  0  0  1  0  2  0  0  0  0  0  0
  124.8950   99.7930  -47.9160 C   0  0  0  1  0  4  0  0  0  0  0  0
  123.1430  100.2980  -49.5000 C   0  0  0  1  0  3  0  0  0  0  0  0
  123.9760  105.2350  -44.8890 C   0  0  0  1  0  3  0  0  0  0  0  0
  124.8500  102.7430  -43.9080 C   0  0  0  1  0  3  0  0  0  0  0  0
  123.4970  106.5410  -45.4510 C   0  0  0  1  0  4  0  0  0  0  0  0
  123.0770  108.8710  -44.7550 C   0  0  0  1  0  4  0  0  0  0  0  0
  124.0790  104.1390  -45.7520 C   0  0  0  1  0  3  0  0  0  0  0  0
  124.7370  103.8600  -43.0710 C   0  0  0  1  0  3  0  0  0  0  0  0
  124.3050  105.1190  -43.5130 C   0  0  0  1  0  3  0  0  0  0  0  0
  123.6820  109.9950  -43.9370 C   0  0  0  1  0  4  0  0  0  0  0  0
  124.9420  110.4210  -44.6780 C   0  0  0  1  0  4  0  0  0  0  0  0
  126.5100  111.4870  -42.9790 C   0  0  0  1  0  4  0  0  0  0  0  0
  127.2920  112.7670  -42.7530 C   0  0  0  1  0  4  0  0  0  0  0  0
  124.4660  112.7410  -43.6380 C   0  0  0  1  0  4  0  0  0  0  0  0
  123.6970  113.4050  -44.7720 C   0  0  0  1  0  4  0  0  0  0  0  0
  125.9830  109.2940  -44.5690 C   0  0  0  1  0  4  0  0  0  0  0  0
  125.3930  108.0860  -45.2720 C   0  0  0  1  0  4  0  0  0  0  0  0
  121.8600   99.9570  -49.9370 C   0  0  0  1  0  3  0  0  0  0  0  0
  121.2150  100.7240  -50.9100 C   0  0  0  1  0  3  0  0  0  0  0  0
  121.8520  101.8380  -51.4530 C   0  0  0  1  0  3  0  0  0  0  0  0
  123.1360  102.1820  -51.0260 C   0  0  0  1  0  3  0  0  0  0  0  0
  123.7780  101.4140  -50.0480 C   0  0  0  1  0  3  0  0  0  0  0  0
  123.6550   99.4560  -48.5430 O   0  0  0  1  0  2  0  0  0  0  0  0
  124.2080  106.1980  -42.6910 O   0  0  0  1  0  2  0  0  0  0  0  0
  125.2340  103.6270  -41.0220 I   0  0  0  1  0  1  0  0  0  0  0  0
  125.2810   98.9120  -47.3820 H   0  0  0  1  0  1  0  0  0  0  0  0
  125.6180  100.0990  -48.6870 H   0  0  0  1  0  1  0  0  0  0  0  0
  124.1710  107.4530  -43.7580 H   0  0  0  1  0  1  0  0  0  0  0  0
  124.4630  105.9480  -41.8110 H   0  0  0  1  0  1  0  0  0  0  0  0
  125.1910  101.7900  -43.5220 H   0  0  0  1  0  1  0  0  0  0  0  0
  122.3990  106.5700  -45.3880 H   0  0  0  1  0  1  0  0  0  0  0  0
  123.8050  106.6040  -46.5040 H   0  0  0  1  0  1  0  0  0  0  0  0
  126.0110  112.1760  -44.8700 H   0  0  0  1  0  1  0  0  0  0  0  0
  122.1150  108.5650  -44.3200 H   0  0  0  1  0  1  0  0  0  0  0  0
  122.9220  109.2020  -45.7920 H   0  0  0  1  0  1  0  0  0  0  0  0
  123.8270  104.2480  -46.8000 H   0  0  0  1  0  1  0  0  0  0  0  0
  123.9340  109.6410  -42.9260 H   0  0  0  1  0  1  0  0  0  0  0  0
  122.9770  110.8370  -43.8650 H   0  0  0  1  0  1  0  0  0  0  0  0
  124.6940  110.5770  -45.7380 H   0  0  0  1  0  1  0  0  0  0  0  0
  127.1970  110.6750  -43.2600 H   0  0  0  1  0  1  0  0  0  0  0  0
  125.9730  111.2110  -42.0600 H   0  0  0  1  0  1  0  0  0  0  0  0
  128.0200  112.6150  -41.9420 H   0  0  0  1  0  1  0  0  0  0  0  0
  126.5990  113.5760  -42.4760 H   0  0  0  1  0  1  0  0  0  0  0  0
  127.8250  113.0400  -43.6770 H   0  0  0  1  0  1  0  0  0  0  0  0
  124.9760  113.5240  -43.0590 H   0  0  0  1  0  1  0  0  0  0  0  0
  123.7470  112.2170  -42.9920 H   0  0  0  1  0  1  0  0  0  0  0  0
  122.9660  114.1130  -44.3540 H   0  0  0  1  0  1  0  0  0  0  0  0
  123.1710  112.6360  -45.3570 H   0  0  0  1  0  1  0  0  0  0  0  0
  124.4000  113.9440  -45.4250 H   0  0  0  1  0  1  0  0  0  0  0  0
  126.1780  109.0590  -43.5110 H   0  0  0  1  0  1  0  0  0  0  0  0
  126.9210  109.5950  -45.0570 H   0  0  0  1  0  1  0  0  0  0  0  0
  125.2890  108.3140  -46.3430 H   0  0  0  1  0  1  0  0  0  0  0  0
  126.0750  107.2320  -45.1430 H   0  0  0  1  0  1  0  0  0  0  0  0
  121.3610   99.0910  -49.5170 H   0  0  0  1  0  1  0  0  0  0  0  0
  120.2200  100.4520  -51.2440 H   0  0  0  1  0  1  0  0  0  0  0  0
  121.3510  102.4360  -52.2060 H   0  0  0  1  0  1  0  0  0  0  0  0
  123.6370  103.0440  -51.4530 H   0  0  0  1  0  1  0  0  0  0  0  0
  124.7730  101.6870  -49.7140 H   0  0  0  1  0  1  0  0  0  0  0  0
  1 10  1  0  0  0  0
  1 11  1  0  0  0  0
  1 22  1  0  0  0  0
  1 33  1  0  0  0  0
  2 16  1  0  0  0  0
  2 17  1  0  0  0  0
  2 19  1  0  0  0  0
  2 38  1  0  0  0  0
  3  4  1  0  0  0  0
  3  9  2  0  0  0  0
  3 12  1  0  0  0  0
  4  5  3  0  0  0  0
  5  6  1  0  0  0  0
  6 28  1  0  0  0  0
  6 31  1  0  0  0  0
  6 32  1  0  0  0  0
  7 23  2  0  0  0  0
  7 27  1  0  0  0  0
  7 28  1  0  0  0  0
  8 10  1  0  0  0  0
  8 12  2  0  0  0  0
  8 14  1  0  0  0  0
  9 13  1  0  0  0  0
  9 35  1  0  0  0  0
 10 36  1  0  0  0  0
 10 37  1  0  0  0  0
 11 15  1  0  0  0  0
 11 39  1  0  0  0  0
 11 40  1  0  0  0  0
 12 41  1  0  0  0  0
 13 14  2  0  0  0  0
 13 30  1  0  0  0  0
 14 29  1  0  0  0  0
 15 16  1  0  0  0  0
 15 42  1  0  0  0  0
 15 43  1  0  0  0  0
 16 21  1  0  0  0  0
 16 44  1  0  0  0  0
 17 18  1  0  0  0  0
 17 45  1  0  0  0  0
 17 46  1  0  0  0  0
 18 47  1  0  0  0  0
 18 48  1  0  0  0  0
 18 49  1  0  0  0  0
 19 20  1  0  0  0  0
 19 50  1  0  0  0  0
 19 51  1  0  0  0  0
 20 52  1  0  0  0  0
 20 53  1  0  0  0  0
 20 54  1  0  0  0  0
 21 22  1  0  0  0  0
 21 55  1  0  0  0  0
 21 56  1  0  0  0  0
 22 57  1  0  0  0  0
 22 58  1  0  0  0  0
 23 24  1  0  0  0  0
 23 59  1  0  0  0  0
 24 25  2  0  0  0  0
 24 60  1  0  0  0  0
 25 26  1  0  0  0  0
 25 61  1  0  0  0  0
 26 27  2  0  0  0  0
 26 62  1  0  0  0  0
 27 63  1  0  0  0  0
 29 34  1  0  0  0  0
M  END
$$$$
