4agq


 64 66  0  0  0  0  0  0  0  0999 V2000
  123.8710   99.2980  -48.6330 N   0  0  0  1  0  3  0  0  0  0  0  0
  123.9580  107.6030  -44.7890 N   0  3  0  1  0  4  0  0  0  0  0  0
  125.4500  111.6190  -44.1530 N   0  3  0  1  0  4  0  0  0  0  0  0
  123.7910  101.2110  -50.1710 C   0  0  0  1  0  3  0  0  0  0  0  0
  124.5290  102.7690  -45.3030 C   0  0  0  1  0  3  0  0  0  0  0  0
  123.9090  105.0890  -44.9350 C   0  0  0  1  0  3  0  0  0  0  0  0
  124.8700  102.6450  -43.9490 C   0  0  0  1  0  3  0  0  0  0  0  0
  123.3850  106.3880  -45.4850 C   0  0  0  1  0  4  0  0  0  0  0  0
  122.9790  108.7410  -44.8490 C   0  0  0  1  0  4  0  0  0  0  0  0
  124.0610  103.9930  -45.7950 C   0  0  0  1  0  3  0  0  0  0  0  0
  124.6920  101.6730  -46.2040 C   0  0  0  1  0  2  0  0  0  0  0  0
  124.7300  103.7370  -43.0810 C   0  0  0  1  0  3  0  0  0  0  0  0
  124.8440  100.7870  -47.0010 C   0  0  0  1  0  2  0  0  0  0  0  0
  125.0740   99.6750  -47.9340 C   0  0  0  1  0  4  0  0  0  0  0  0
  123.2030  100.1150  -49.5330 C   0  0  0  1  0  3  0  0  0  0  0  0
  124.2450  104.9490  -43.5800 C   0  0  0  1  0  3  0  0  0  0  0  0
  121.8590   99.8450  -49.8280 C   0  0  0  1  0  3  0  0  0  0  0  0
  123.5670  109.9230  -44.0960 C   0  0  0  1  0  4  0  0  0  0  0  0
  121.1350  100.6360  -50.7270 C   0  0  0  1  0  3  0  0  0  0  0  0
  124.9010  110.3060  -44.7320 C   0  0  0  1  0  4  0  0  0  0  0  0
  123.7050  113.3160  -44.7780 C   0  0  0  1  0  4  0  0  0  0  0  0
  126.5280  111.4620  -43.0980 C   0  0  0  1  0  4  0  0  0  0  0  0
  127.2240  112.7910  -42.8610 C   0  0  0  1  0  4  0  0  0  0  0  0
  125.9010  109.1490  -44.6010 C   0  0  0  1  0  4  0  0  0  0  0  0
  125.3410  107.9150  -45.2920 C   0  0  0  1  0  4  0  0  0  0  0  0
  121.7430  101.7200  -51.3500 C   0  0  0  1  0  3  0  0  0  0  0  0
  123.0790  102.0060  -51.0750 C   0  0  0  1  0  3  0  0  0  0  0  0
  124.3370  112.5400  -43.6340 C   0  0  0  1  0  4  0  0  0  0  0  0
  124.1070  106.0430  -42.7550 O   0  0  0  1  0  2  0  0  0  0  0  0
  125.2110  103.5730  -41.0150 I   0  0  0  1  0  1  0  0  0  0  0  0
  124.8270  101.4520  -49.9590 H   0  0  0  1  0  1  0  0  0  0  0  0
  123.4820   98.3620  -48.4520 H   0  0  0  1  0  1  0  0  0  0  0  0
  124.0600  107.3680  -43.8140 H   0  0  0  1  0  1  0  0  0  0  0  0
  124.3680  105.8070  -41.8720 H   0  0  0  1  0  1  0  0  0  0  0  0
  125.2440  101.7010  -43.5710 H   0  0  0  1  0  1  0  0  0  0  0  0
  122.2910  106.4010  -45.3680 H   0  0  0  1  0  1  0  0  0  0  0  0
  123.6400  106.4440  -46.5530 H   0  0  0  1  0  1  0  0  0  0  0  0
  125.8840  112.0980  -44.9270 H   0  0  0  1  0  1  0  0  0  0  0  0
  122.0300  108.4400  -44.3820 H   0  0  0  1  0  1  0  0  0  0  0  0
  122.8000  109.0220  -45.8970 H   0  0  0  1  0  1  0  0  0  0  0  0
  123.8150  104.0940  -46.8460 H   0  0  0  1  0  1  0  0  0  0  0  0
  125.8320   99.9810  -48.6710 H   0  0  0  1  0  1  0  0  0  0  0  0
  125.4430   98.8070  -47.3690 H   0  0  0  1  0  1  0  0  0  0  0  0
  121.3710   99.0040  -49.3490 H   0  0  0  1  0  1  0  0  0  0  0  0
  123.7270  109.6460  -43.0440 H   0  0  0  1  0  1  0  0  0  0  0  0
  122.8750  110.7760  -44.1500 H   0  0  0  1  0  1  0  0  0  0  0  0
  120.0980  100.4030  -50.9370 H   0  0  0  1  0  1  0  0  0  0  0  0
  124.7240  110.4720  -45.8050 H   0  0  0  1  0  1  0  0  0  0  0  0
  122.9110  113.9670  -44.3840 H   0  0  0  1  0  1  0  0  0  0  0  0
  123.2730  112.6110  -45.5040 H   0  0  0  1  0  1  0  0  0  0  0  0
  124.4720  113.9300  -45.2730 H   0  0  0  1  0  1  0  0  0  0  0  0
  127.2660  110.7210  -43.4390 H   0  0  0  1  0  1  0  0  0  0  0  0
  126.0700  111.1180  -42.1580 H   0  0  0  1  0  1  0  0  0  0  0  0
  128.0030  112.6660  -42.0950 H   0  0  0  1  0  1  0  0  0  0  0  0
  126.4890  113.5340  -42.5190 H   0  0  0  1  0  1  0  0  0  0  0  0
  127.6850  113.1370  -43.7990 H   0  0  0  1  0  1  0  0  0  0  0  0
  126.0690  108.9290  -43.5370 H   0  0  0  1  0  1  0  0  0  0  0  0
  126.8540  109.4330  -45.0720 H   0  0  0  1  0  1  0  0  0  0  0  0
  125.2990  108.0960  -46.3760 H   0  0  0  1  0  1  0  0  0  0  0  0
  126.0010  107.0580  -45.0890 H   0  0  0  1  0  1  0  0  0  0  0  0
  121.1830  102.3360  -52.0440 H   0  0  0  1  0  1  0  0  0  0  0  0
  123.5660  102.8440  -51.5610 H   0  0  0  1  0  1  0  0  0  0  0  0
  124.7640  113.2490  -42.9090 H   0  0  0  1  0  1  0  0  0  0  0  0
  123.5650  111.9310  -43.1400 H   0  0  0  1  0  1  0  0  0  0  0  0
  1 14  1  0  0  0  0
  1 15  1  0  0  0  0
  1 32  1  0  0  0  0
  2  8  1  0  0  0  0
  2  9  1  0  0  0  0
  2 25  1  0  0  0  0
  2 33  1  0  0  0  0
  3 20  1  0  0  0  0
  3 22  1  0  0  0  0
  3 28  1  0  0  0  0
  3 38  1  0  0  0  0
  4 15  2  0  0  0  0
  4 27  1  0  0  0  0
  4 31  1  0  0  0  0
  5  7  2  0  0  0  0
  5 10  1  0  0  0  0
  5 11  1  0  0  0  0
  6  8  1  0  0  0  0
  6 10  2  0  0  0  0
  6 16  1  0  0  0  0
  7 12  1  0  0  0  0
  7 35  1  0  0  0  0
  8 36  1  0  0  0  0
  8 37  1  0  0  0  0
  9 18  1  0  0  0  0
  9 39  1  0  0  0  0
  9 40  1  0  0  0  0
 10 41  1  0  0  0  0
 11 13  3  0  0  0  0
 12 16  2  0  0  0  0
 12 30  1  0  0  0  0
 13 14  1  0  0  0  0
 14 42  1  0  0  0  0
 14 43  1  0  0  0  0
 15 17  1  0  0  0  0
 16 29  1  0  0  0  0
 17 19  2  0  0  0  0
 17 44  1  0  0  0  0
 18 20  1  0  0  0  0
 18 45  1  0  0  0  0
 18 46  1  0  0  0  0
 19 26  1  0  0  0  0
 19 47  1  0  0  0  0
 20 24  1  0  0  0  0
 20 48  1  0  0  0  0
 21 28  1  0  0  0  0
 21 49  1  0  0  0  0
 21 50  1  0  0  0  0
 21 51  1  0  0  0  0
 22 23  1  0  0  0  0
 22 52  1  0  0  0  0
 22 53  1  0  0  0  0
 23 54  1  0  0  0  0
 23 55  1  0  0  0  0
 23 56  1  0  0  0  0
 24 25  1  0  0  0  0
 24 57  1  0  0  0  0
 24 58  1  0  0  0  0
 25 59  1  0  0  0  0
 25 60  1  0  0  0  0
 26 27  2  0  0  0  0
 26 61  1  0  0  0  0
 27 62  1  0  0  0  0
 28 63  1  0  0  0  0
 28 64  1  0  0  0  0
 29 34  1  0  0  0  0
M  END
$$$$
