4agp


 63 65  0  0  0  0  0  0  0  0999 V2000
  124.0460  107.7170  -44.7230 N   0  3  0  1  0  4  0  0  0  0  0  0
  125.5080  111.7370  -44.1130 N   0  3  0  1  0  4  0  0  0  0  0  0
  124.5110  102.8950  -45.2560 C   0  0  0  1  0  3  0  0  0  0  0  0
  124.6220  101.7890  -46.1620 C   0  0  0  1  0  2  0  0  0  0  0  0
  124.7120  100.9000  -46.9560 C   0  0  0  1  0  2  0  0  0  0  0  0
  124.8950   99.7930  -47.9160 C   0  0  0  1  0  4  0  0  0  0  0  0
  123.1430  100.2980  -49.5000 C   0  0  0  1  0  3  0  0  0  0  0  0
  123.9760  105.2350  -44.8890 C   0  0  0  1  0  3  0  0  0  0  0  0
  124.8500  102.7430  -43.9080 C   0  0  0  1  0  3  0  0  0  0  0  0
  123.4970  106.5410  -45.4510 C   0  0  0  1  0  4  0  0  0  0  0  0
  123.0770  108.8710  -44.7550 C   0  0  0  1  0  4  0  0  0  0  0  0
  124.0790  104.1390  -45.7520 C   0  0  0  1  0  3  0  0  0  0  0  0
  124.7370  103.8600  -43.0710 C   0  0  0  1  0  3  0  0  0  0  0  0
  124.3050  105.1190  -43.5130 C   0  0  0  1  0  3  0  0  0  0  0  0
  123.6820  109.9950  -43.9370 C   0  0  0  1  0  4  0  0  0  0  0  0
  124.9420  110.4210  -44.6780 C   0  0  0  1  0  4  0  0  0  0  0  0
  126.5100  111.4870  -42.9790 C   0  0  0  1  0  4  0  0  0  0  0  0
  127.2920  112.7670  -42.7530 C   0  0  0  1  0  4  0  0  0  0  0  0
  124.4660  112.7410  -43.6380 C   0  0  0  1  0  4  0  0  0  0  0  0
  123.6970  113.4050  -44.7720 C   0  0  0  1  0  4  0  0  0  0  0  0
  125.9830  109.2940  -44.5690 C   0  0  0  1  0  4  0  0  0  0  0  0
  125.3930  108.0860  -45.2720 C   0  0  0  1  0  4  0  0  0  0  0  0
  121.8600   99.9570  -49.9370 C   0  0  0  1  0  3  0  0  0  0  0  0
  121.2150  100.7240  -50.9100 C   0  0  0  1  0  3  0  0  0  0  0  0
  121.8520  101.8380  -51.4530 C   0  0  0  1  0  3  0  0  0  0  0  0
  123.1360  102.1820  -51.0260 C   0  0  0  1  0  3  0  0  0  0  0  0
  123.7780  101.4140  -50.0480 C   0  0  0  1  0  3  0  0  0  0  0  0
  123.6550   99.4560  -48.5430 O   0  0  0  1  0  2  0  0  0  0  0  0
  124.2080  106.1980  -42.6910 O   0  0  0  1  0  2  0  0  0  0  0  0
  125.2340  103.6270  -41.0220 I   0  0  0  1  0  1  0  0  0  0  0  0
  125.2810   98.9120  -47.3820 H   0  0  0  1  0  1  0  0  0  0  0  0
  125.6180  100.0990  -48.6870 H   0  0  0  1  0  1  0  0  0  0  0  0
  124.1710  107.4530  -43.7580 H   0  0  0  1  0  1  0  0  0  0  0  0
  124.4630  105.9480  -41.8110 H   0  0  0  1  0  1  0  0  0  0  0  0
  125.1910  101.7900  -43.5220 H   0  0  0  1  0  1  0  0  0  0  0  0
  122.3990  106.5700  -45.3880 H   0  0  0  1  0  1  0  0  0  0  0  0
  123.8050  106.6040  -46.5040 H   0  0  0  1  0  1  0  0  0  0  0  0
  126.0110  112.1760  -44.8700 H   0  0  0  1  0  1  0  0  0  0  0  0
  122.1150  108.5650  -44.3200 H   0  0  0  1  0  1  0  0  0  0  0  0
  122.9220  109.2020  -45.7920 H   0  0  0  1  0  1  0  0  0  0  0  0
  123.8270  104.2480  -46.8000 H   0  0  0  1  0  1  0  0  0  0  0  0
  123.9340  109.6410  -42.9260 H   0  0  0  1  0  1  0  0  0  0  0  0
  122.9770  110.8370  -43.8650 H   0  0  0  1  0  1  0  0  0  0  0  0
  124.6940  110.5770  -45.7380 H   0  0  0  1  0  1  0  0  0  0  0  0
  127.1970  110.6750  -43.2600 H   0  0  0  1  0  1  0  0  0  0  0  0
  125.9730  111.2110  -42.0600 H   0  0  0  1  0  1  0  0  0  0  0  0
  128.0200  112.6150  -41.9420 H   0  0  0  1  0  1  0  0  0  0  0  0
  126.5990  113.5760  -42.4760 H   0  0  0  1  0  1  0  0  0  0  0  0
  127.8250  113.0400  -43.6770 H   0  0  0  1  0  1  0  0  0  0  0  0
  124.9760  113.5240  -43.0590 H   0  0  0  1  0  1  0  0  0  0  0  0
  123.7470  112.2170  -42.9920 H   0  0  0  1  0  1  0  0  0  0  0  0
  122.9660  114.1130  -44.3540 H   0  0  0  1  0  1  0  0  0  0  0  0
  123.1710  112.6360  -45.3570 H   0  0  0  1  0  1  0  0  0  0  0  0
  124.4000  113.9440  -45.4250 H   0  0  0  1  0  1  0  0  0  0  0  0
  126.1780  109.0590  -43.5110 H   0  0  0  1  0  1  0  0  0  0  0  0
  126.9210  109.5950  -45.0570 H   0  0  0  1  0  1  0  0  0  0  0  0
  125.2890  108.3140  -46.3430 H   0  0  0  1  0  1  0  0  0  0  0  0
  126.0750  107.2320  -45.1430 H   0  0  0  1  0  1  0  0  0  0  0  0
  121.3610   99.0910  -49.5170 H   0  0  0  1  0  1  0  0  0  0  0  0
  120.2200  100.4520  -51.2440 H   0  0  0  1  0  1  0  0  0  0  0  0
  121.3510  102.4360  -52.2060 H   0  0  0  1  0  1  0  0  0  0  0  0
  123.6370  103.0440  -51.4530 H   0  0  0  1  0  1  0  0  0  0  0  0
  124.7730  101.6870  -49.7140 H   0  0  0  1  0  1  0  0  0  0  0  0
  1 10  1  0  0  0  0
  1 11  1  0  0  0  0
  1 22  1  0  0  0  0
  1 33  1  0  0  0  0
  2 16  1  0  0  0  0
  2 17  1  0  0  0  0
  2 19  1  0  0  0  0
  2 38  1  0  0  0  0
  3  4  1  0  0  0  0
  3  9  2  0  0  0  0
  3 12  1  0  0  0  0
  4  5  3  0  0  0  0
  5  6  1  0  0  0  0
  6 28  1  0  0  0  0
  6 31  1  0  0  0  0
  6 32  1  0  0  0  0
  7 23  2  0  0  0  0
  7 27  1  0  0  0  0
  7 28  1  0  0  0  0
  8 10  1  0  0  0  0
  8 12  2  0  0  0  0
  8 14  1  0  0  0  0
  9 13  1  0  0  0  0
  9 35  1  0  0  0  0
 10 36  1  0  0  0  0
 10 37  1  0  0  0  0
 11 15  1  0  0  0  0
 11 39  1  0  0  0  0
 11 40  1  0  0  0  0
 12 41  1  0  0  0  0
 13 14  2  0  0  0  0
 13 30  1  0  0  0  0
 14 29  1  0  0  0  0
 15 16  1  0  0  0  0
 15 42  1  0  0  0  0
 15 43  1  0  0  0  0
 16 21  1  0  0  0  0
 16 44  1  0  0  0  0
 17 18  1  0  0  0  0
 17 45  1  0  0  0  0
 17 46  1  0  0  0  0
 18 47  1  0  0  0  0
 18 48  1  0  0  0  0
 18 49  1  0  0  0  0
 19 20  1  0  0  0  0
 19 50  1  0  0  0  0
 19 51  1  0  0  0  0
 20 52  1  0  0  0  0
 20 53  1  0  0  0  0
 20 54  1  0  0  0  0
 21 22  1  0  0  0  0
 21 55  1  0  0  0  0
 21 56  1  0  0  0  0
 22 57  1  0  0  0  0
 22 58  1  0  0  0  0
 23 24  1  0  0  0  0
 23 59  1  0  0  0  0
 24 25  2  0  0  0  0
 24 60  1  0  0  0  0
 25 26  1  0  0  0  0
 25 61  1  0  0  0  0
 26 27  2  0  0  0  0
 26 62  1  0  0  0  0
 27 63  1  0  0  0  0
 29 34  1  0  0  0  0
M  END
$$$$
4agp


 63 65  0  0  0  0  0  0  0  0999 V2000
    5.4320    2.2550   28.3390 N   0  3  0  1  0  4  0  0  0  0  0  0
    4.8056   -1.3098   27.7638 N   0  3  0  1  0  4  0  0  0  0  0  0
    8.9423    5.6321   27.8323 C   0  0  0  1  0  3  0  0  0  0  0  0
   10.3028    6.0030   28.0931 C   0  0  0  1  0  2  0  0  0  0  0  0
   11.4392    6.2749   28.3451 C   0  0  0  1  0  2  0  0  0  0  0  0
   12.8392    6.6658   28.6051 C   0  0  0  1  0  4  0  0  0  0  0  0
   14.7223    6.0517   29.9873 C   0  0  0  1  0  3  0  0  0  0  0  0
    7.0632    4.2086   28.2453 C   0  0  0  1  0  3  0  0  0  0  0  0
    8.2060    6.3157   26.8901 C   0  0  0  1  0  3  0  0  0  0  0  0
    6.4640    3.0610   28.9950 C   0  0  0  1  0  4  0  0  0  0  0  0
    6.0520    1.4770   27.2550 C   0  0  0  1  0  4  0  0  0  0  0  0
    8.3655    4.5933   28.5204 C   0  0  0  1  0  3  0  0  0  0  0  0
    6.8892    5.9553   26.6312 C   0  0  0  1  0  3  0  0  0  0  0  0
    6.3134    4.9032   27.3111 C   0  0  0  1  0  3  0  0  0  0  0  0
    4.9600    0.8100   26.4490 C   0  0  0  1  0  4  0  0  0  0  0  0
    4.0370   -0.0500   27.3240 C   0  0  0  1  0  4  0  0  0  0  0  0
    5.2713   -2.1426   26.5629 C   0  0  0  1  0  4  0  0  0  0  0  0
    6.1691   -1.2698   25.7065 C   0  0  0  1  0  4  0  0  0  0  0  0
    4.0627   -2.2177   28.7351 C   0  0  0  1  0  4  0  0  0  0  0  0
    3.6971   -1.5380   30.0476 C   0  0  0  1  0  4  0  0  0  0  0  0
    3.5580    0.6920   28.5700 C   0  0  0  1  0  4  0  0  0  0  0  0
    4.7240    1.3610   29.2750 C   0  0  0  1  0  4  0  0  0  0  0  0
   15.3542    7.0848   29.2897 C   0  0  0  1  0  3  0  0  0  0  0  0
   16.6828    7.4170   29.5644 C   0  0  0  1  0  3  0  0  0  0  0  0
   17.3882    6.7151   30.5398 C   0  0  0  1  0  3  0  0  0  0  0  0
   16.7659    5.6779   31.2371 C   0  0  0  1  0  3  0  0  0  0  0  0
   15.4334    5.3501   30.9626 C   0  0  0  1  0  3  0  0  0  0  0  0
   13.4187    5.8337   29.6131 O   0  0  0  1  0  2  0  0  0  0  0  0
    5.0228    4.5512   27.0667 O   0  0  0  1  0  2  0  0  0  0  0  0
    5.7629    7.0259   25.1872 I   0  0  0  1  0  1  0  0  0  0  0  0
   12.8653    7.7128   28.9420 H   0  0  0  1  0  1  0  0  0  0  0  0
   13.4208    6.5661   27.6763 H   0  0  0  1  0  1  0  0  0  0  0  0
    4.7369    2.8837   27.9672 H   0  0  0  1  0  1  0  0  0  0  0  0
    4.9919    3.6477   26.7759 H   0  0  0  1  0  1  0  0  0  0  0  0
    8.6558    7.1387   26.3480 H   0  0  0  1  0  1  0  0  0  0  0  0
    7.2876    2.3807   29.2581 H   0  0  0  1  0  1  0  0  0  0  0  0
    6.0195    3.4709   29.9126 H   0  0  0  1  0  1  0  0  0  0  0  0
    5.6311   -0.9835   28.2443 H   0  0  0  1  0  1  0  0  0  0  0  0
    6.7157    0.7119   27.6822 H   0  0  0  1  0  1  0  0  0  0  0  0
    6.6341    2.1467   26.6056 H   0  0  0  1  0  1  0  0  0  0  0  0
    8.9317    4.0716   29.2825 H   0  0  0  1  0  1  0  0  0  0  0  0
    5.4248    0.1675   25.6861 H   0  0  0  1  0  1  0  0  0  0  0  0
    4.3575    1.5882   25.9564 H   0  0  0  1  0  1  0  0  0  0  0  0
    3.1599   -0.3440   26.7292 H   0  0  0  1  0  1  0  0  0  0  0  0
    4.4007   -2.4710   25.9761 H   0  0  0  1  0  1  0  0  0  0  0  0
    5.8304   -3.0225   26.9127 H   0  0  0  1  0  1  0  0  0  0  0  0
    7.0268   -0.9264   26.3041 H   0  0  0  1  0  1  0  0  0  0  0  0
    5.5999   -0.3984   25.3485 H   0  0  0  1  0  1  0  0  0  0  0  0
    6.5325   -1.8508   24.8447 H   0  0  0  1  0  1  0  0  0  0  0  0
    4.7010   -3.0843   28.9587 H   0  0  0  1  0  1  0  0  0  0  0  0
    3.1361   -2.5598   28.2522 H   0  0  0  1  0  1  0  0  0  0  0  0
    3.1644   -2.2513   30.6939 H   0  0  0  1  0  1  0  0  0  0  0  0
    3.0496   -0.6723   29.8435 H   0  0  0  1  0  1  0  0  0  0  0  0
    4.6142   -1.1978   30.5519 H   0  0  0  1  0  1  0  0  0  0  0  0
    3.0827   -0.0249   29.2576 H   0  0  0  1  0  1  0  0  0  0  0  0
    2.8266    1.4580   28.2753 H   0  0  0  1  0  1  0  0  0  0  0  0
    4.3473    1.9483   30.1253 H   0  0  0  1  0  1  0  0  0  0  0  0
    5.4199    0.5906   29.6402 H   0  0  0  1  0  1  0  0  0  0  0  0
   14.8089    7.6333   28.5301 H   0  0  0  1  0  1  0  0  0  0  0  0
   17.1658    8.2193   29.0180 H   0  0  0  1  0  1  0  0  0  0  0  0
   18.4186    6.9742   30.7561 H   0  0  0  1  0  1  0  0  0  0  0  0
   17.3154    5.1248   31.9912 H   0  0  0  1  0  1  0  0  0  0  0  0
   14.9508    4.5479   31.5099 H   0  0  0  1  0  1  0  0  0  0  0  0
  1 10  1  0  0  0  0
  1 11  1  0  0  0  0
  1 22  1  0  0  0  0
  1 33  1  0  0  0  0
  2 16  1  0  0  0  0
  2 17  1  0  0  0  0
  2 19  1  0  0  0  0
  2 38  1  0  0  0  0
  3  4  1  0  0  0  0
  3  9  2  0  0  0  0
  3 12  1  0  0  0  0
  4  5  3  0  0  0  0
  5  6  1  0  0  0  0
  6 28  1  0  0  0  0
  6 31  1  0  0  0  0
  6 32  1  0  0  0  0
  7 23  2  0  0  0  0
  7 27  1  0  0  0  0
  7 28  1  0  0  0  0
  8 10  1  0  0  0  0
  8 12  2  0  0  0  0
  8 14  1  0  0  0  0
  9 13  1  0  0  0  0
  9 35  1  0  0  0  0
 10 36  1  0  0  0  0
 10 37  1  0  0  0  0
 11 15  1  0  0  0  0
 11 39  1  0  0  0  0
 11 40  1  0  0  0  0
 12 41  1  0  0  0  0
 13 14  2  0  0  0  0
 13 30  1  0  0  0  0
 14 29  1  0  0  0  0
 15 16  1  0  0  0  0
 15 42  1  0  0  0  0
 15 43  1  0  0  0  0
 16 21  1  0  0  0  0
 16 44  1  0  0  0  0
 17 18  1  0  0  0  0
 17 45  1  0  0  0  0
 17 46  1  0  0  0  0
 18 47  1  0  0  0  0
 18 48  1  0  0  0  0
 18 49  1  0  0  0  0
 19 20  1  0  0  0  0
 19 50  1  0  0  0  0
 19 51  1  0  0  0  0
 20 52  1  0  0  0  0
 20 53  1  0  0  0  0
 20 54  1  0  0  0  0
 21 22  1  0  0  0  0
 21 55  1  0  0  0  0
 21 56  1  0  0  0  0
 22 57  1  0  0  0  0
 22 58  1  0  0  0  0
 23 24  1  0  0  0  0
 23 59  1  0  0  0  0
 24 25  2  0  0  0  0
 24 60  1  0  0  0  0
 25 26  1  0  0  0  0
 25 61  1  0  0  0  0
 26 27  2  0  0  0  0
 26 62  1  0  0  0  0
 27 63  1  0  0  0  0
 29 34  1  0  0  0  0
M  END
> <ConfScore>
-0.532336

$$$$
4agp


 63 65  0  0  0  0  0  0  0  0999 V2000
    5.4320    2.2550   28.3390 N   0  3  0  1  0  4  0  0  0  0  0  0
    4.8056   -1.3098   27.7638 N   0  3  0  1  0  4  0  0  0  0  0  0
    8.9423    5.6321   27.8323 C   0  0  0  1  0  3  0  0  0  0  0  0
   10.3028    6.0030   28.0931 C   0  0  0  1  0  2  0  0  0  0  0  0
   11.4392    6.2749   28.3451 C   0  0  0  1  0  2  0  0  0  0  0  0
   12.8392    6.6658   28.6051 C   0  0  0  1  0  4  0  0  0  0  0  0
   14.7223    6.0517   29.9873 C   0  0  0  1  0  3  0  0  0  0  0  0
    7.0632    4.2086   28.2453 C   0  0  0  1  0  3  0  0  0  0  0  0
    8.2060    6.3157   26.8901 C   0  0  0  1  0  3  0  0  0  0  0  0
    6.4640    3.0610   28.9950 C   0  0  0  1  0  4  0  0  0  0  0  0
    6.0520    1.4770   27.2550 C   0  0  0  1  0  4  0  0  0  0  0  0
    8.3655    4.5933   28.5204 C   0  0  0  1  0  3  0  0  0  0  0  0
    6.8892    5.9553   26.6312 C   0  0  0  1  0  3  0  0  0  0  0  0
    6.3134    4.9032   27.3111 C   0  0  0  1  0  3  0  0  0  0  0  0
    4.9600    0.8100   26.4490 C   0  0  0  1  0  4  0  0  0  0  0  0
    4.0370   -0.0500   27.3240 C   0  0  0  1  0  4  0  0  0  0  0  0
    5.2713   -2.1426   26.5629 C   0  0  0  1  0  4  0  0  0  0  0  0
    6.1691   -1.2698   25.7065 C   0  0  0  1  0  4  0  0  0  0  0  0
    4.0627   -2.2177   28.7351 C   0  0  0  1  0  4  0  0  0  0  0  0
    3.6971   -1.5380   30.0476 C   0  0  0  1  0  4  0  0  0  0  0  0
    3.5580    0.6920   28.5700 C   0  0  0  1  0  4  0  0  0  0  0  0
    4.7240    1.3610   29.2750 C   0  0  0  1  0  4  0  0  0  0  0  0
   15.1807    5.1973   30.9939 C   0  0  0  1  0  3  0  0  0  0  0  0
   16.4874    5.3055   31.4753 C   0  0  0  1  0  3  0  0  0  0  0  0
   17.3440    6.2718   30.9519 C   0  0  0  1  0  3  0  0  0  0  0  0
   16.8920    7.1330   29.9502 C   0  0  0  1  0  3  0  0  0  0  0  0
   15.5835    7.0195   29.4670 C   0  0  0  1  0  3  0  0  0  0  0  0
   13.4187    5.8337   29.6131 O   0  0  0  1  0  2  0  0  0  0  0  0
    5.0228    4.5512   27.0667 O   0  0  0  1  0  2  0  0  0  0  0  0
    5.7629    7.0259   25.1872 I   0  0  0  1  0  1  0  0  0  0  0  0
   12.8653    7.7128   28.9420 H   0  0  0  1  0  1  0  0  0  0  0  0
   13.4208    6.5661   27.6763 H   0  0  0  1  0  1  0  0  0  0  0  0
    4.7369    2.8837   27.9672 H   0  0  0  1  0  1  0  0  0  0  0  0
    4.9919    3.6477   26.7759 H   0  0  0  1  0  1  0  0  0  0  0  0
    8.6558    7.1387   26.3480 H   0  0  0  1  0  1  0  0  0  0  0  0
    7.2876    2.3807   29.2581 H   0  0  0  1  0  1  0  0  0  0  0  0
    6.0195    3.4709   29.9126 H   0  0  0  1  0  1  0  0  0  0  0  0
    5.6311   -0.9835   28.2443 H   0  0  0  1  0  1  0  0  0  0  0  0
    6.7157    0.7119   27.6822 H   0  0  0  1  0  1  0  0  0  0  0  0
    6.6341    2.1467   26.6056 H   0  0  0  1  0  1  0  0  0  0  0  0
    8.9317    4.0716   29.2825 H   0  0  0  1  0  1  0  0  0  0  0  0
    5.4248    0.1675   25.6861 H   0  0  0  1  0  1  0  0  0  0  0  0
    4.3575    1.5882   25.9564 H   0  0  0  1  0  1  0  0  0  0  0  0
    3.1599   -0.3440   26.7292 H   0  0  0  1  0  1  0  0  0  0  0  0
    4.4007   -2.4710   25.9761 H   0  0  0  1  0  1  0  0  0  0  0  0
    5.8304   -3.0225   26.9127 H   0  0  0  1  0  1  0  0  0  0  0  0
    7.0268   -0.9264   26.3041 H   0  0  0  1  0  1  0  0  0  0  0  0
    5.5999   -0.3984   25.3485 H   0  0  0  1  0  1  0  0  0  0  0  0
    6.5325   -1.8508   24.8447 H   0  0  0  1  0  1  0  0  0  0  0  0
    4.7010   -3.0843   28.9587 H   0  0  0  1  0  1  0  0  0  0  0  0
    3.1361   -2.5598   28.2522 H   0  0  0  1  0  1  0  0  0  0  0  0
    3.1644   -2.2513   30.6939 H   0  0  0  1  0  1  0  0  0  0  0  0
    3.0496   -0.6723   29.8435 H   0  0  0  1  0  1  0  0  0  0  0  0
    4.6142   -1.1978   30.5519 H   0  0  0  1  0  1  0  0  0  0  0  0
    3.0827   -0.0249   29.2576 H   0  0  0  1  0  1  0  0  0  0  0  0
    2.8266    1.4580   28.2753 H   0  0  0  1  0  1  0  0  0  0  0  0
    4.3473    1.9483   30.1253 H   0  0  0  1  0  1  0  0  0  0  0  0
    5.4199    0.5906   29.6402 H   0  0  0  1  0  1  0  0  0  0  0  0
   14.5173    4.4441   31.4038 H   0  0  0  1  0  1  0  0  0  0  0  0
   16.8348    4.6392   32.2570 H   0  0  0  1  0  1  0  0  0  0  0  0
   18.3596    6.3546   31.3226 H   0  0  0  1  0  1  0  0  0  0  0  0
   17.5544    7.8912   29.5469 H   0  0  0  1  0  1  0  0  0  0  0  0
   15.2369    7.6859   28.6848 H   0  0  0  1  0  1  0  0  0  0  0  0
  1 10  1  0  0  0  0
  1 11  1  0  0  0  0
  1 22  1  0  0  0  0
  1 33  1  0  0  0  0
  2 16  1  0  0  0  0
  2 17  1  0  0  0  0
  2 19  1  0  0  0  0
  2 38  1  0  0  0  0
  3  4  1  0  0  0  0
  3  9  2  0  0  0  0
  3 12  1  0  0  0  0
  4  5  3  0  0  0  0
  5  6  1  0  0  0  0
  6 28  1  0  0  0  0
  6 31  1  0  0  0  0
  6 32  1  0  0  0  0
  7 23  2  0  0  0  0
  7 27  1  0  0  0  0
  7 28  1  0  0  0  0
  8 10  1  0  0  0  0
  8 12  2  0  0  0  0
  8 14  1  0  0  0  0
  9 13  1  0  0  0  0
  9 35  1  0  0  0  0
 10 36  1  0  0  0  0
 10 37  1  0  0  0  0
 11 15  1  0  0  0  0
 11 39  1  0  0  0  0
 11 40  1  0  0  0  0
 12 41  1  0  0  0  0
 13 14  2  0  0  0  0
 13 30  1  0  0  0  0
 14 29  1  0  0  0  0
 15 16  1  0  0  0  0
 15 42  1  0  0  0  0
 15 43  1  0  0  0  0
 16 21  1  0  0  0  0
 16 44  1  0  0  0  0
 17 18  1  0  0  0  0
 17 45  1  0  0  0  0
 17 46  1  0  0  0  0
 18 47  1  0  0  0  0
 18 48  1  0  0  0  0
 18 49  1  0  0  0  0
 19 20  1  0  0  0  0
 19 50  1  0  0  0  0
 19 51  1  0  0  0  0
 20 52  1  0  0  0  0
 20 53  1  0  0  0  0
 20 54  1  0  0  0  0
 21 22  1  0  0  0  0
 21 55  1  0  0  0  0
 21 56  1  0  0  0  0
 22 57  1  0  0  0  0
 22 58  1  0  0  0  0
 23 24  1  0  0  0  0
 23 59  1  0  0  0  0
 24 25  2  0  0  0  0
 24 60  1  0  0  0  0
 25 26  1  0  0  0  0
 25 61  1  0  0  0  0
 26 27  2  0  0  0  0
 26 62  1  0  0  0  0
 27 63  1  0  0  0  0
 29 34  1  0  0  0  0
M  END
> <ConfScore>
-0.532336

$$$$
4agp


 63 65  0  0  0  0  0  0  0  0999 V2000
  124.0460  107.7170  -44.7230 N   0  3  0  1  0  4  0  0  0  0  0  0
  125.5080  111.7370  -44.1130 N   0  3  0  1  0  4  0  0  0  0  0  0
  124.6548  102.9329  -45.4246 C   0  0  0  1  0  3  0  0  0  0  0  0
  124.7518  101.8573  -46.3680 C   0  0  0  1  0  2  0  0  0  0  0  0
  124.8126  100.9913  -47.1898 C   0  0  0  1  0  2  0  0  0  0  0  0
  124.9174   99.8765  -48.1524 C   0  0  0  1  0  4  0  0  0  0  0  0
  124.4536   99.3584  -50.4655 C   0  0  0  1  0  3  0  0  0  0  0  0
  124.0568  105.2395  -44.9573 C   0  0  0  1  0  3  0  0  0  0  0  0
  125.0797  102.7572  -44.1041 C   0  0  0  1  0  3  0  0  0  0  0  0
  123.4970  106.5410  -45.4510 C   0  0  0  1  0  4  0  0  0  0  0  0
  123.0770  108.8710  -44.7550 C   0  0  0  1  0  4  0  0  0  0  0  0
  124.1481  104.1724  -45.8570 C   0  0  0  1  0  3  0  0  0  0  0  0
  124.9761  103.8456  -43.2291 C   0  0  0  1  0  3  0  0  0  0  0  0
  124.4721  105.0986  -43.6072 C   0  0  0  1  0  3  0  0  0  0  0  0
  123.6820  109.9950  -43.9370 C   0  0  0  1  0  4  0  0  0  0  0  0
  124.9420  110.4210  -44.6780 C   0  0  0  1  0  4  0  0  0  0  0  0
  126.7493  112.2022  -44.8845 C   0  0  0  1  0  4  0  0  0  0  0  0
  126.3539  112.3979  -46.3358 C   0  0  0  1  0  4  0  0  0  0  0  0
  125.8303  111.7191  -42.6247 C   0  0  0  1  0  4  0  0  0  0  0  0
  124.6445  111.3403  -41.7480 C   0  0  0  1  0  4  0  0  0  0  0  0
  125.9830  109.2940  -44.5690 C   0  0  0  1  0  4  0  0  0  0  0  0
  125.3930  108.0860  -45.2720 C   0  0  0  1  0  4  0  0  0  0  0  0
  124.9977   98.1182  -50.1200 C   0  0  0  1  0  3  0  0  0  0  0  0
  125.0874   97.0948  -51.0664 C   0  0  0  1  0  3  0  0  0  0  0  0
  124.6334   97.3075  -52.3665 C   0  0  0  1  0  3  0  0  0  0  0  0
  124.0939   98.5454  -52.7211 C   0  0  0  1  0  3  0  0  0  0  0  0
  124.0015   99.5675  -51.7696 C   0  0  0  1  0  3  0  0  0  0  0  0
  124.4297  100.2696  -49.4378 O   0  0  0  1  0  2  0  0  0  0  0  0
  124.3850  106.1501  -42.7493 O   0  0  0  1  0  2  0  0  0  0  0  0
  125.6038  103.5759  -41.2209 I   0  0  0  1  0  1  0  0  0  0  0  0
  124.3241   99.0257  -47.7857 H   0  0  0  1  0  1  0  0  0  0  0  0
  125.9717   99.5750  -48.2430 H   0  0  0  1  0  1  0  0  0  0  0  0
  124.1710  107.4530  -43.7580 H   0  0  0  1  0  1  0  0  0  0  0  0
  124.7016  105.8861  -41.8937 H   0  0  0  1  0  1  0  0  0  0  0  0
  125.4782  101.8078  -43.7674 H   0  0  0  1  0  1  0  0  0  0  0  0
  122.4046  106.5262  -45.3215 H   0  0  0  1  0  1  0  0  0  0  0  0
  123.7377  106.6443  -46.5183 H   0  0  0  1  0  1  0  0  0  0  0  0
  124.7899  112.4336  -44.2467 H   0  0  0  1  0  1  0  0  0  0  0  0
  122.1150  108.5650  -44.3200 H   0  0  0  1  0  1  0  0  0  0  0  0
  122.9220  109.2020  -45.7920 H   0  0  0  1  0  1  0  0  0  0  0  0
  123.8296  104.3003  -46.8846 H   0  0  0  1  0  1  0  0  0  0  0  0
  123.9340  109.6410  -42.9260 H   0  0  0  1  0  1  0  0  0  0  0  0
  122.9770  110.8370  -43.8650 H   0  0  0  1  0  1  0  0  0  0  0  0
  124.6940  110.5770  -45.7380 H   0  0  0  1  0  1  0  0  0  0  0  0
  127.5404  111.4410  -44.8130 H   0  0  0  1  0  1  0  0  0  0  0  0
  127.1152  113.1511  -44.4665 H   0  0  0  1  0  1  0  0  0  0  0  0
  125.5477  113.1441  -46.4000 H   0  0  0  1  0  1  0  0  0  0  0  0
  126.0017  111.4418  -46.7521 H   0  0  0  1  0  1  0  0  0  0  0  0
  127.2251  112.7500  -46.9098 H   0  0  0  1  0  1  0  0  0  0  0  0
  126.1732  112.7214  -42.3310 H   0  0  0  1  0  1  0  0  0  0  0  0
  126.6357  110.9909  -42.4517 H   0  0  0  1  0  1  0  0  0  0  0  0
  124.9524  111.3473  -40.6918 H   0  0  0  1  0  1  0  0  0  0  0  0
  124.2934  110.3344  -42.0220 H   0  0  0  1  0  1  0  0  0  0  0  0
  123.8306  112.0655  -41.8992 H   0  0  0  1  0  1  0  0  0  0  0  0
  126.1780  109.0590  -43.5110 H   0  0  0  1  0  1  0  0  0  0  0  0
  126.9210  109.5950  -45.0570 H   0  0  0  1  0  1  0  0  0  0  0  0
  125.2890  108.3140  -46.3430 H   0  0  0  1  0  1  0  0  0  0  0  0
  126.0750  107.2320  -45.1430 H   0  0  0  1  0  1  0  0  0  0  0  0
  125.3520   97.9488  -49.1096 H   0  0  0  1  0  1  0  0  0  0  0  0
  125.5116   96.1359  -50.7903 H   0  0  0  1  0  1  0  0  0  0  0  0
  124.6996   96.5127  -53.1010 H   0  0  0  1  0  1  0  0  0  0  0  0
  123.7472   98.7159  -53.7346 H   0  0  0  1  0  1  0  0  0  0  0  0
  123.5766  100.5262  -52.0464 H   0  0  0  1  0  1  0  0  0  0  0  0
  1 10  1  0  0  0  0
  1 11  1  0  0  0  0
  1 22  1  0  0  0  0
  1 33  1  0  0  0  0
  2 16  1  0  0  0  0
  2 17  1  0  0  0  0
  2 19  1  0  0  0  0
  2 38  1  0  0  0  0
  3  4  1  0  0  0  0
  3  9  2  0  0  0  0
  3 12  1  0  0  0  0
  4  5  3  0  0  0  0
  5  6  1  0  0  0  0
  6 28  1  0  0  0  0
  6 31  1  0  0  0  0
  6 32  1  0  0  0  0
  7 23  2  0  0  0  0
  7 27  1  0  0  0  0
  7 28  1  0  0  0  0
  8 10  1  0  0  0  0
  8 12  2  0  0  0  0
  8 14  1  0  0  0  0
  9 13  1  0  0  0  0
  9 35  1  0  0  0  0
 10 36  1  0  0  0  0
 10 37  1  0  0  0  0
 11 15  1  0  0  0  0
 11 39  1  0  0  0  0
 11 40  1  0  0  0  0
 12 41  1  0  0  0  0
 13 14  2  0  0  0  0
 13 30  1  0  0  0  0
 14 29  1  0  0  0  0
 15 16  1  0  0  0  0
 15 42  1  0  0  0  0
 15 43  1  0  0  0  0
 16 21  1  0  0  0  0
 16 44  1  0  0  0  0
 17 18  1  0  0  0  0
 17 45  1  0  0  0  0
 17 46  1  0  0  0  0
 18 47  1  0  0  0  0
 18 48  1  0  0  0  0
 18 49  1  0  0  0  0
 19 20  1  0  0  0  0
 19 50  1  0  0  0  0
 19 51  1  0  0  0  0
 20 52  1  0  0  0  0
 20 53  1  0  0  0  0
 20 54  1  0  0  0  0
 21 22  1  0  0  0  0
 21 55  1  0  0  0  0
 21 56  1  0  0  0  0
 22 57  1  0  0  0  0
 22 58  1  0  0  0  0
 23 24  1  0  0  0  0
 23 59  1  0  0  0  0
 24 25  2  0  0  0  0
 24 60  1  0  0  0  0
 25 26  1  0  0  0  0
 25 61  1  0  0  0  0
 26 27  2  0  0  0  0
 26 62  1  0  0  0  0
 27 63  1  0  0  0  0
 29 34  1  0  0  0  0
M  END
> <ConfScore>
-0.522116

$$$$
4agp


 63 65  0  0  0  0  0  0  0  0999 V2000
  124.0460  107.7170  -44.7230 N   0  3  0  1  0  4  0  0  0  0  0  0
  125.5080  111.7370  -44.1130 N   0  3  0  1  0  4  0  0  0  0  0  0
  124.6548  102.9329  -45.4246 C   0  0  0  1  0  3  0  0  0  0  0  0
  124.7518  101.8573  -46.3680 C   0  0  0  1  0  2  0  0  0  0  0  0
  124.8126  100.9913  -47.1898 C   0  0  0  1  0  2  0  0  0  0  0  0
  124.9174   99.8765  -48.1524 C   0  0  0  1  0  4  0  0  0  0  0  0
  124.4685   99.3636  -50.4695 C   0  0  0  1  0  3  0  0  0  0  0  0
  124.0568  105.2395  -44.9573 C   0  0  0  1  0  3  0  0  0  0  0  0
  125.0797  102.7572  -44.1041 C   0  0  0  1  0  3  0  0  0  0  0  0
  123.4970  106.5410  -45.4510 C   0  0  0  1  0  4  0  0  0  0  0  0
  123.0770  108.8710  -44.7550 C   0  0  0  1  0  4  0  0  0  0  0  0
  124.1481  104.1724  -45.8570 C   0  0  0  1  0  3  0  0  0  0  0  0
  124.9761  103.8456  -43.2291 C   0  0  0  1  0  3  0  0  0  0  0  0
  124.4721  105.0986  -43.6072 C   0  0  0  1  0  3  0  0  0  0  0  0
  123.6820  109.9950  -43.9370 C   0  0  0  1  0  4  0  0  0  0  0  0
  124.9420  110.4210  -44.6780 C   0  0  0  1  0  4  0  0  0  0  0  0
  126.7493  112.2022  -44.8845 C   0  0  0  1  0  4  0  0  0  0  0  0
  126.3539  112.3979  -46.3358 C   0  0  0  1  0  4  0  0  0  0  0  0
  125.8303  111.7191  -42.6247 C   0  0  0  1  0  4  0  0  0  0  0  0
  124.6445  111.3403  -41.7480 C   0  0  0  1  0  4  0  0  0  0  0  0
  125.9830  109.2940  -44.5690 C   0  0  0  1  0  4  0  0  0  0  0  0
  125.3930  108.0860  -45.2720 C   0  0  0  1  0  4  0  0  0  0  0  0
  123.9680   99.8509  -51.6800 C   0  0  0  1  0  3  0  0  0  0  0  0
  123.9437   99.0385  -52.8159 C   0  0  0  1  0  3  0  0  0  0  0  0
  124.4199   97.7308  -52.7464 C   0  0  0  1  0  3  0  0  0  0  0  0
  124.9162   97.2345  -51.5395 C   0  0  0  1  0  3  0  0  0  0  0  0
  124.9431   98.0523  -50.4042 C   0  0  0  1  0  3  0  0  0  0  0  0
  124.4297  100.2696  -49.4378 O   0  0  0  1  0  2  0  0  0  0  0  0
  124.3850  106.1501  -42.7493 O   0  0  0  1  0  2  0  0  0  0  0  0
  125.6038  103.5759  -41.2209 I   0  0  0  1  0  1  0  0  0  0  0  0
  124.3241   99.0257  -47.7857 H   0  0  0  1  0  1  0  0  0  0  0  0
  125.9717   99.5750  -48.2430 H   0  0  0  1  0  1  0  0  0  0  0  0
  124.1710  107.4530  -43.7580 H   0  0  0  1  0  1  0  0  0  0  0  0
  124.7016  105.8861  -41.8937 H   0  0  0  1  0  1  0  0  0  0  0  0
  125.4782  101.8078  -43.7674 H   0  0  0  1  0  1  0  0  0  0  0  0
  122.4046  106.5262  -45.3215 H   0  0  0  1  0  1  0  0  0  0  0  0
  123.7377  106.6443  -46.5183 H   0  0  0  1  0  1  0  0  0  0  0  0
  124.7899  112.4336  -44.2467 H   0  0  0  1  0  1  0  0  0  0  0  0
  122.1150  108.5650  -44.3200 H   0  0  0  1  0  1  0  0  0  0  0  0
  122.9220  109.2020  -45.7920 H   0  0  0  1  0  1  0  0  0  0  0  0
  123.8296  104.3003  -46.8846 H   0  0  0  1  0  1  0  0  0  0  0  0
  123.9340  109.6410  -42.9260 H   0  0  0  1  0  1  0  0  0  0  0  0
  122.9770  110.8370  -43.8650 H   0  0  0  1  0  1  0  0  0  0  0  0
  124.6940  110.5770  -45.7380 H   0  0  0  1  0  1  0  0  0  0  0  0
  127.5404  111.4410  -44.8130 H   0  0  0  1  0  1  0  0  0  0  0  0
  127.1152  113.1511  -44.4665 H   0  0  0  1  0  1  0  0  0  0  0  0
  125.5477  113.1441  -46.4000 H   0  0  0  1  0  1  0  0  0  0  0  0
  126.0017  111.4418  -46.7521 H   0  0  0  1  0  1  0  0  0  0  0  0
  127.2251  112.7500  -46.9098 H   0  0  0  1  0  1  0  0  0  0  0  0
  126.1732  112.7214  -42.3310 H   0  0  0  1  0  1  0  0  0  0  0  0
  126.6357  110.9909  -42.4517 H   0  0  0  1  0  1  0  0  0  0  0  0
  124.9524  111.3473  -40.6918 H   0  0  0  1  0  1  0  0  0  0  0  0
  124.2934  110.3344  -42.0220 H   0  0  0  1  0  1  0  0  0  0  0  0
  123.8306  112.0655  -41.8992 H   0  0  0  1  0  1  0  0  0  0  0  0
  126.1780  109.0590  -43.5110 H   0  0  0  1  0  1  0  0  0  0  0  0
  126.9210  109.5950  -45.0570 H   0  0  0  1  0  1  0  0  0  0  0  0
  125.2890  108.3140  -46.3430 H   0  0  0  1  0  1  0  0  0  0  0  0
  126.0750  107.2320  -45.1430 H   0  0  0  1  0  1  0  0  0  0  0  0
  123.5965  100.8678  -51.7382 H   0  0  0  1  0  1  0  0  0  0  0  0
  123.5529   99.4242  -53.7509 H   0  0  0  1  0  1  0  0  0  0  0  0
  124.4045   97.1002  -53.6284 H   0  0  0  1  0  1  0  0  0  0  0  0
  125.2801   96.2144  -51.4810 H   0  0  0  1  0  1  0  0  0  0  0  0
  125.3346   97.6660  -49.4695 H   0  0  0  1  0  1  0  0  0  0  0  0
  1 10  1  0  0  0  0
  1 11  1  0  0  0  0
  1 22  1  0  0  0  0
  1 33  1  0  0  0  0
  2 16  1  0  0  0  0
  2 17  1  0  0  0  0
  2 19  1  0  0  0  0
  2 38  1  0  0  0  0
  3  4  1  0  0  0  0
  3  9  2  0  0  0  0
  3 12  1  0  0  0  0
  4  5  3  0  0  0  0
  5  6  1  0  0  0  0
  6 28  1  0  0  0  0
  6 31  1  0  0  0  0
  6 32  1  0  0  0  0
  7 23  2  0  0  0  0
  7 27  1  0  0  0  0
  7 28  1  0  0  0  0
  8 10  1  0  0  0  0
  8 12  2  0  0  0  0
  8 14  1  0  0  0  0
  9 13  1  0  0  0  0
  9 35  1  0  0  0  0
 10 36  1  0  0  0  0
 10 37  1  0  0  0  0
 11 15  1  0  0  0  0
 11 39  1  0  0  0  0
 11 40  1  0  0  0  0
 12 41  1  0  0  0  0
 13 14  2  0  0  0  0
 13 30  1  0  0  0  0
 14 29  1  0  0  0  0
 15 16  1  0  0  0  0
 15 42  1  0  0  0  0
 15 43  1  0  0  0  0
 16 21  1  0  0  0  0
 16 44  1  0  0  0  0
 17 18  1  0  0  0  0
 17 45  1  0  0  0  0
 17 46  1  0  0  0  0
 18 47  1  0  0  0  0
 18 48  1  0  0  0  0
 18 49  1  0  0  0  0
 19 20  1  0  0  0  0
 19 50  1  0  0  0  0
 19 51  1  0  0  0  0
 20 52  1  0  0  0  0
 20 53  1  0  0  0  0
 20 54  1  0  0  0  0
 21 22  1  0  0  0  0
 21 55  1  0  0  0  0
 21 56  1  0  0  0  0
 22 57  1  0  0  0  0
 22 58  1  0  0  0  0
 23 24  1  0  0  0  0
 23 59  1  0  0  0  0
 24 25  2  0  0  0  0
 24 60  1  0  0  0  0
 25 26  1  0  0  0  0
 25 61  1  0  0  0  0
 26 27  2  0  0  0  0
 26 62  1  0  0  0  0
 27 63  1  0  0  0  0
 29 34  1  0  0  0  0
M  END
> <ConfScore>
-0.522116

$$$$
4agp


 63 65  0  0  0  0  0  0  0  0999 V2000
  124.0460  107.7170  -44.7230 N   0  3  0  1  0  4  0  0  0  0  0  0
  125.5080  111.7370  -44.1130 N   0  3  0  1  0  4  0  0  0  0  0  0
  124.6548  102.9329  -45.4246 C   0  0  0  1  0  3  0  0  0  0  0  0
  124.7518  101.8573  -46.3680 C   0  0  0  1  0  2  0  0  0  0  0  0
  124.8126  100.9913  -47.1898 C   0  0  0  1  0  2  0  0  0  0  0  0
  124.9174   99.8765  -48.1524 C   0  0  0  1  0  4  0  0  0  0  0  0
  124.4536   99.3584  -50.4655 C   0  0  0  1  0  3  0  0  0  0  0  0
  124.0568  105.2395  -44.9573 C   0  0  0  1  0  3  0  0  0  0  0  0
  125.0797  102.7572  -44.1041 C   0  0  0  1  0  3  0  0  0  0  0  0
  123.4970  106.5410  -45.4510 C   0  0  0  1  0  4  0  0  0  0  0  0
  123.0770  108.8710  -44.7550 C   0  0  0  1  0  4  0  0  0  0  0  0
  124.1481  104.1724  -45.8570 C   0  0  0  1  0  3  0  0  0  0  0  0
  124.9761  103.8456  -43.2291 C   0  0  0  1  0  3  0  0  0  0  0  0
  124.4721  105.0986  -43.6072 C   0  0  0  1  0  3  0  0  0  0  0  0
  123.6820  109.9950  -43.9370 C   0  0  0  1  0  4  0  0  0  0  0  0
  124.9420  110.4210  -44.6780 C   0  0  0  1  0  4  0  0  0  0  0  0
  125.9435  111.5893  -42.6498 C   0  0  0  1  0  4  0  0  0  0  0  0
  127.0042  110.5070  -42.5828 C   0  0  0  1  0  4  0  0  0  0  0  0
  124.5879  112.9445  -44.2342 C   0  0  0  1  0  4  0  0  0  0  0  0
  123.2812  112.7954  -43.4671 C   0  0  0  1  0  4  0  0  0  0  0  0
  125.9830  109.2940  -44.5690 C   0  0  0  1  0  4  0  0  0  0  0  0
  125.3930  108.0860  -45.2720 C   0  0  0  1  0  4  0  0  0  0  0  0
  123.9295   99.8376  -51.6692 C   0  0  0  1  0  3  0  0  0  0  0  0
  123.8880   99.0192  -52.8004 C   0  0  0  1  0  3  0  0  0  0  0  0
  124.3707   97.7138  -52.7328 C   0  0  0  1  0  3  0  0  0  0  0  0
  124.8905   97.2256  -51.5325 C   0  0  0  1  0  3  0  0  0  0  0  0
  124.9346   98.0493  -50.4020 C   0  0  0  1  0  3  0  0  0  0  0  0
  124.4297  100.2696  -49.4378 O   0  0  0  1  0  2  0  0  0  0  0  0
  124.3850  106.1501  -42.7493 O   0  0  0  1  0  2  0  0  0  0  0  0
  125.6038  103.5759  -41.2209 I   0  0  0  1  0  1  0  0  0  0  0  0
  124.3241   99.0257  -47.7857 H   0  0  0  1  0  1  0  0  0  0  0  0
  125.9717   99.5750  -48.2430 H   0  0  0  1  0  1  0  0  0  0  0  0
  124.1710  107.4530  -43.7580 H   0  0  0  1  0  1  0  0  0  0  0  0
  124.7016  105.8861  -41.8937 H   0  0  0  1  0  1  0  0  0  0  0  0
  125.4782  101.8078  -43.7674 H   0  0  0  1  0  1  0  0  0  0  0  0
  122.4046  106.5262  -45.3215 H   0  0  0  1  0  1  0  0  0  0  0  0
  123.7377  106.6443  -46.5183 H   0  0  0  1  0  1  0  0  0  0  0  0
  126.3337  111.9449  -44.6550 H   0  0  0  1  0  1  0  0  0  0  0  0
  122.1150  108.5650  -44.3200 H   0  0  0  1  0  1  0  0  0  0  0  0
  122.9220  109.2020  -45.7920 H   0  0  0  1  0  1  0  0  0  0  0  0
  123.8296  104.3003  -46.8846 H   0  0  0  1  0  1  0  0  0  0  0  0
  123.9340  109.6410  -42.9260 H   0  0  0  1  0  1  0  0  0  0  0  0
  122.9770  110.8370  -43.8650 H   0  0  0  1  0  1  0  0  0  0  0  0
  124.6940  110.5770  -45.7380 H   0  0  0  1  0  1  0  0  0  0  0  0
  125.0803  111.3043  -42.0302 H   0  0  0  1  0  1  0  0  0  0  0  0
  126.3579  112.5404  -42.2855 H   0  0  0  1  0  1  0  0  0  0  0  0
  127.8559  110.7865  -43.2210 H   0  0  0  1  0  1  0  0  0  0  0  0
  126.5794  109.5549  -42.9357 H   0  0  0  1  0  1  0  0  0  0  0  0
  127.3479  110.3931  -41.5430 H   0  0  0  1  0  1  0  0  0  0  0  0
  124.3514  113.0964  -45.2969 H   0  0  0  1  0  1  0  0  0  0  0  0
  125.1183  113.8264  -43.8471 H   0  0  0  1  0  1  0  0  0  0  0  0
  122.6726  113.7023  -43.5998 H   0  0  0  1  0  1  0  0  0  0  0  0
  123.4986  112.6518  -42.3982 H   0  0  0  1  0  1  0  0  0  0  0  0
  122.7299  111.9227  -43.8486 H   0  0  0  1  0  1  0  0  0  0  0  0
  126.1780  109.0590  -43.5110 H   0  0  0  1  0  1  0  0  0  0  0  0
  126.9210  109.5950  -45.0570 H   0  0  0  1  0  1  0  0  0  0  0  0
  125.2890  108.3140  -46.3430 H   0  0  0  1  0  1  0  0  0  0  0  0
  126.0750  107.2320  -45.1430 H   0  0  0  1  0  1  0  0  0  0  0  0
  123.5530  100.8527  -51.7259 H   0  0  0  1  0  1  0  0  0  0  0  0
  123.4790   99.3986  -53.7301 H   0  0  0  1  0  1  0  0  0  0  0  0
  124.3420   97.0786  -53.6111 H   0  0  0  1  0  1  0  0  0  0  0  0
  125.2594   96.2073  -51.4753 H   0  0  0  1  0  1  0  0  0  0  0  0
  125.3443   97.6694  -49.4725 H   0  0  0  1  0  1  0  0  0  0  0  0
  1 10  1  0  0  0  0
  1 11  1  0  0  0  0
  1 22  1  0  0  0  0
  1 33  1  0  0  0  0
  2 16  1  0  0  0  0
  2 17  1  0  0  0  0
  2 19  1  0  0  0  0
  2 38  1  0  0  0  0
  3  4  1  0  0  0  0
  3  9  2  0  0  0  0
  3 12  1  0  0  0  0
  4  5  3  0  0  0  0
  5  6  1  0  0  0  0
  6 28  1  0  0  0  0
  6 31  1  0  0  0  0
  6 32  1  0  0  0  0
  7 23  2  0  0  0  0
  7 27  1  0  0  0  0
  7 28  1  0  0  0  0
  8 10  1  0  0  0  0
  8 12  2  0  0  0  0
  8 14  1  0  0  0  0
  9 13  1  0  0  0  0
  9 35  1  0  0  0  0
 10 36  1  0  0  0  0
 10 37  1  0  0  0  0
 11 15  1  0  0  0  0
 11 39  1  0  0  0  0
 11 40  1  0  0  0  0
 12 41  1  0  0  0  0
 13 14  2  0  0  0  0
 13 30  1  0  0  0  0
 14 29  1  0  0  0  0
 15 16  1  0  0  0  0
 15 42  1  0  0  0  0
 15 43  1  0  0  0  0
 16 21  1  0  0  0  0
 16 44  1  0  0  0  0
 17 18  1  0  0  0  0
 17 45  1  0  0  0  0
 17 46  1  0  0  0  0
 18 47  1  0  0  0  0
 18 48  1  0  0  0  0
 18 49  1  0  0  0  0
 19 20  1  0  0  0  0
 19 50  1  0  0  0  0
 19 51  1  0  0  0  0
 20 52  1  0  0  0  0
 20 53  1  0  0  0  0
 20 54  1  0  0  0  0
 21 22  1  0  0  0  0
 21 55  1  0  0  0  0
 21 56  1  0  0  0  0
 22 57  1  0  0  0  0
 22 58  1  0  0  0  0
 23 24  1  0  0  0  0
 23 59  1  0  0  0  0
 24 25  2  0  0  0  0
 24 60  1  0  0  0  0
 25 26  1  0  0  0  0
 25 61  1  0  0  0  0
 26 27  2  0  0  0  0
 26 62  1  0  0  0  0
 27 63  1  0  0  0  0
 29 34  1  0  0  0  0
M  END
> <ConfScore>
-0.514081

$$$$
4agp


 63 65  0  0  0  0  0  0  0  0999 V2000
  124.0460  107.7170  -44.7230 N   0  3  0  1  0  4  0  0  0  0  0  0
  125.5080  111.7370  -44.1130 N   0  3  0  1  0  4  0  0  0  0  0  0
  124.6548  102.9329  -45.4246 C   0  0  0  1  0  3  0  0  0  0  0  0
  124.7518  101.8573  -46.3680 C   0  0  0  1  0  2  0  0  0  0  0  0
  124.8126  100.9913  -47.1898 C   0  0  0  1  0  2  0  0  0  0  0  0
  124.9174   99.8765  -48.1524 C   0  0  0  1  0  4  0  0  0  0  0  0
  124.4536   99.3584  -50.4655 C   0  0  0  1  0  3  0  0  0  0  0  0
  124.0568  105.2395  -44.9573 C   0  0  0  1  0  3  0  0  0  0  0  0
  125.0797  102.7572  -44.1041 C   0  0  0  1  0  3  0  0  0  0  0  0
  123.4970  106.5410  -45.4510 C   0  0  0  1  0  4  0  0  0  0  0  0
  123.0770  108.8710  -44.7550 C   0  0  0  1  0  4  0  0  0  0  0  0
  124.1481  104.1724  -45.8570 C   0  0  0  1  0  3  0  0  0  0  0  0
  124.9761  103.8456  -43.2291 C   0  0  0  1  0  3  0  0  0  0  0  0
  124.4721  105.0986  -43.6072 C   0  0  0  1  0  3  0  0  0  0  0  0
  123.6820  109.9950  -43.9370 C   0  0  0  1  0  4  0  0  0  0  0  0
  124.9420  110.4210  -44.6780 C   0  0  0  1  0  4  0  0  0  0  0  0
  125.9435  111.5893  -42.6498 C   0  0  0  1  0  4  0  0  0  0  0  0
  127.0042  110.5070  -42.5828 C   0  0  0  1  0  4  0  0  0  0  0  0
  124.5879  112.9445  -44.2342 C   0  0  0  1  0  4  0  0  0  0  0  0
  123.2812  112.7954  -43.4671 C   0  0  0  1  0  4  0  0  0  0  0  0
  125.9830  109.2940  -44.5690 C   0  0  0  1  0  4  0  0  0  0  0  0
  125.3930  108.0860  -45.2720 C   0  0  0  1  0  4  0  0  0  0  0  0
  124.9977   98.1182  -50.1200 C   0  0  0  1  0  3  0  0  0  0  0  0
  125.0874   97.0948  -51.0664 C   0  0  0  1  0  3  0  0  0  0  0  0
  124.6334   97.3075  -52.3665 C   0  0  0  1  0  3  0  0  0  0  0  0
  124.0939   98.5454  -52.7211 C   0  0  0  1  0  3  0  0  0  0  0  0
  124.0015   99.5675  -51.7696 C   0  0  0  1  0  3  0  0  0  0  0  0
  124.4297  100.2696  -49.4378 O   0  0  0  1  0  2  0  0  0  0  0  0
  124.3850  106.1501  -42.7493 O   0  0  0  1  0  2  0  0  0  0  0  0
  125.6038  103.5759  -41.2209 I   0  0  0  1  0  1  0  0  0  0  0  0
  124.3241   99.0257  -47.7857 H   0  0  0  1  0  1  0  0  0  0  0  0
  125.9717   99.5750  -48.2430 H   0  0  0  1  0  1  0  0  0  0  0  0
  124.1710  107.4530  -43.7580 H   0  0  0  1  0  1  0  0  0  0  0  0
  124.7016  105.8861  -41.8937 H   0  0  0  1  0  1  0  0  0  0  0  0
  125.4782  101.8078  -43.7674 H   0  0  0  1  0  1  0  0  0  0  0  0
  122.4046  106.5262  -45.3215 H   0  0  0  1  0  1  0  0  0  0  0  0
  123.7377  106.6443  -46.5183 H   0  0  0  1  0  1  0  0  0  0  0  0
  126.3337  111.9449  -44.6550 H   0  0  0  1  0  1  0  0  0  0  0  0
  122.1150  108.5650  -44.3200 H   0  0  0  1  0  1  0  0  0  0  0  0
  122.9220  109.2020  -45.7920 H   0  0  0  1  0  1  0  0  0  0  0  0
  123.8296  104.3003  -46.8846 H   0  0  0  1  0  1  0  0  0  0  0  0
  123.9340  109.6410  -42.9260 H   0  0  0  1  0  1  0  0  0  0  0  0
  122.9770  110.8370  -43.8650 H   0  0  0  1  0  1  0  0  0  0  0  0
  124.6940  110.5770  -45.7380 H   0  0  0  1  0  1  0  0  0  0  0  0
  125.0803  111.3043  -42.0302 H   0  0  0  1  0  1  0  0  0  0  0  0
  126.3579  112.5404  -42.2855 H   0  0  0  1  0  1  0  0  0  0  0  0
  127.8559  110.7865  -43.2210 H   0  0  0  1  0  1  0  0  0  0  0  0
  126.5794  109.5549  -42.9357 H   0  0  0  1  0  1  0  0  0  0  0  0
  127.3479  110.3931  -41.5430 H   0  0  0  1  0  1  0  0  0  0  0  0
  124.3514  113.0964  -45.2969 H   0  0  0  1  0  1  0  0  0  0  0  0
  125.1183  113.8264  -43.8471 H   0  0  0  1  0  1  0  0  0  0  0  0
  122.6726  113.7023  -43.5998 H   0  0  0  1  0  1  0  0  0  0  0  0
  123.4986  112.6518  -42.3982 H   0  0  0  1  0  1  0  0  0  0  0  0
  122.7299  111.9227  -43.8486 H   0  0  0  1  0  1  0  0  0  0  0  0
  126.1780  109.0590  -43.5110 H   0  0  0  1  0  1  0  0  0  0  0  0
  126.9210  109.5950  -45.0570 H   0  0  0  1  0  1  0  0  0  0  0  0
  125.2890  108.3140  -46.3430 H   0  0  0  1  0  1  0  0  0  0  0  0
  126.0750  107.2320  -45.1430 H   0  0  0  1  0  1  0  0  0  0  0  0
  125.3520   97.9488  -49.1096 H   0  0  0  1  0  1  0  0  0  0  0  0
  125.5116   96.1359  -50.7903 H   0  0  0  1  0  1  0  0  0  0  0  0
  124.6996   96.5127  -53.1010 H   0  0  0  1  0  1  0  0  0  0  0  0
  123.7472   98.7159  -53.7346 H   0  0  0  1  0  1  0  0  0  0  0  0
  123.5766  100.5262  -52.0464 H   0  0  0  1  0  1  0  0  0  0  0  0
  1 10  1  0  0  0  0
  1 11  1  0  0  0  0
  1 22  1  0  0  0  0
  1 33  1  0  0  0  0
  2 16  1  0  0  0  0
  2 17  1  0  0  0  0
  2 19  1  0  0  0  0
  2 38  1  0  0  0  0
  3  4  1  0  0  0  0
  3  9  2  0  0  0  0
  3 12  1  0  0  0  0
  4  5  3  0  0  0  0
  5  6  1  0  0  0  0
  6 28  1  0  0  0  0
  6 31  1  0  0  0  0
  6 32  1  0  0  0  0
  7 23  2  0  0  0  0
  7 27  1  0  0  0  0
  7 28  1  0  0  0  0
  8 10  1  0  0  0  0
  8 12  2  0  0  0  0
  8 14  1  0  0  0  0
  9 13  1  0  0  0  0
  9 35  1  0  0  0  0
 10 36  1  0  0  0  0
 10 37  1  0  0  0  0
 11 15  1  0  0  0  0
 11 39  1  0  0  0  0
 11 40  1  0  0  0  0
 12 41  1  0  0  0  0
 13 14  2  0  0  0  0
 13 30  1  0  0  0  0
 14 29  1  0  0  0  0
 15 16  1  0  0  0  0
 15 42  1  0  0  0  0
 15 43  1  0  0  0  0
 16 21  1  0  0  0  0
 16 44  1  0  0  0  0
 17 18  1  0  0  0  0
 17 45  1  0  0  0  0
 17 46  1  0  0  0  0
 18 47  1  0  0  0  0
 18 48  1  0  0  0  0
 18 49  1  0  0  0  0
 19 20  1  0  0  0  0
 19 50  1  0  0  0  0
 19 51  1  0  0  0  0
 20 52  1  0  0  0  0
 20 53  1  0  0  0  0
 20 54  1  0  0  0  0
 21 22  1  0  0  0  0
 21 55  1  0  0  0  0
 21 56  1  0  0  0  0
 22 57  1  0  0  0  0
 22 58  1  0  0  0  0
 23 24  1  0  0  0  0
 23 59  1  0  0  0  0
 24 25  2  0  0  0  0
 24 60  1  0  0  0  0
 25 26  1  0  0  0  0
 25 61  1  0  0  0  0
 26 27  2  0  0  0  0
 26 62  1  0  0  0  0
 27 63  1  0  0  0  0
 29 34  1  0  0  0  0
M  END
> <ConfScore>
-0.514081

$$$$
4agp


 63 65  0  0  0  0  0  0  0  0999 V2000
  124.0460  107.7170  -44.7230 N   0  3  0  1  0  4  0  0  0  0  0  0
  125.5080  111.7370  -44.1130 N   0  3  0  1  0  4  0  0  0  0  0  0
  124.6548  102.9329  -45.4246 C   0  0  0  1  0  3  0  0  0  0  0  0
  124.7518  101.8573  -46.3680 C   0  0  0  1  0  2  0  0  0  0  0  0
  124.8126  100.9913  -47.1898 C   0  0  0  1  0  2  0  0  0  0  0  0
  124.9174   99.8765  -48.1524 C   0  0  0  1  0  4  0  0  0  0  0  0
  124.4685   99.3636  -50.4695 C   0  0  0  1  0  3  0  0  0  0  0  0
  124.0568  105.2395  -44.9573 C   0  0  0  1  0  3  0  0  0  0  0  0
  125.0797  102.7572  -44.1041 C   0  0  0  1  0  3  0  0  0  0  0  0
  123.4970  106.5410  -45.4510 C   0  0  0  1  0  4  0  0  0  0  0  0
  123.0770  108.8710  -44.7550 C   0  0  0  1  0  4  0  0  0  0  0  0
  124.1481  104.1724  -45.8570 C   0  0  0  1  0  3  0  0  0  0  0  0
  124.9761  103.8456  -43.2291 C   0  0  0  1  0  3  0  0  0  0  0  0
  124.4721  105.0986  -43.6072 C   0  0  0  1  0  3  0  0  0  0  0  0
  123.6820  109.9950  -43.9370 C   0  0  0  1  0  4  0  0  0  0  0  0
  124.9420  110.4210  -44.6780 C   0  0  0  1  0  4  0  0  0  0  0  0
  126.7493  112.2022  -44.8845 C   0  0  0  1  0  4  0  0  0  0  0  0
  126.3728  112.3260  -46.3487 C   0  0  0  1  0  4  0  0  0  0  0  0
  125.8303  111.7191  -42.6247 C   0  0  0  1  0  4  0  0  0  0  0  0
  126.8779  110.6835  -42.2396 C   0  0  0  1  0  4  0  0  0  0  0  0
  125.9830  109.2940  -44.5690 C   0  0  0  1  0  4  0  0  0  0  0  0
  125.3930  108.0860  -45.2720 C   0  0  0  1  0  4  0  0  0  0  0  0
  123.9680   99.8509  -51.6800 C   0  0  0  1  0  3  0  0  0  0  0  0
  123.9437   99.0385  -52.8159 C   0  0  0  1  0  3  0  0  0  0  0  0
  124.4199   97.7308  -52.7464 C   0  0  0  1  0  3  0  0  0  0  0  0
  124.9162   97.2345  -51.5395 C   0  0  0  1  0  3  0  0  0  0  0  0
  124.9431   98.0523  -50.4042 C   0  0  0  1  0  3  0  0  0  0  0  0
  124.4297  100.2696  -49.4378 O   0  0  0  1  0  2  0  0  0  0  0  0
  124.3850  106.1501  -42.7493 O   0  0  0  1  0  2  0  0  0  0  0  0
  125.6038  103.5759  -41.2209 I   0  0  0  1  0  1  0  0  0  0  0  0
  124.3241   99.0257  -47.7857 H   0  0  0  1  0  1  0  0  0  0  0  0
  125.9717   99.5750  -48.2430 H   0  0  0  1  0  1  0  0  0  0  0  0
  124.1710  107.4530  -43.7580 H   0  0  0  1  0  1  0  0  0  0  0  0
  124.7016  105.8861  -41.8937 H   0  0  0  1  0  1  0  0  0  0  0  0
  125.4782  101.8078  -43.7674 H   0  0  0  1  0  1  0  0  0  0  0  0
  122.4046  106.5262  -45.3215 H   0  0  0  1  0  1  0  0  0  0  0  0
  123.7377  106.6443  -46.5183 H   0  0  0  1  0  1  0  0  0  0  0  0
  124.7899  112.4336  -44.2467 H   0  0  0  1  0  1  0  0  0  0  0  0
  122.1150  108.5650  -44.3200 H   0  0  0  1  0  1  0  0  0  0  0  0
  122.9220  109.2020  -45.7920 H   0  0  0  1  0  1  0  0  0  0  0  0
  123.8296  104.3003  -46.8846 H   0  0  0  1  0  1  0  0  0  0  0  0
  123.9340  109.6410  -42.9260 H   0  0  0  1  0  1  0  0  0  0  0  0
  122.9770  110.8370  -43.8650 H   0  0  0  1  0  1  0  0  0  0  0  0
  124.6940  110.5770  -45.7380 H   0  0  0  1  0  1  0  0  0  0  0  0
  127.5586  111.4660  -44.7686 H   0  0  0  1  0  1  0  0  0  0  0  0
  127.0835  113.1773  -44.5017 H   0  0  0  1  0  1  0  0  0  0  0  0
  125.5486  113.0470  -46.4569 H   0  0  0  1  0  1  0  0  0  0  0  0
  126.0525  111.3441  -46.7292 H   0  0  0  1  0  1  0  0  0  0  0  0
  127.2439  112.6767  -46.9237 H   0  0  0  1  0  1  0  0  0  0  0  0
  124.9060  111.5007  -42.0712 H   0  0  0  1  0  1  0  0  0  0  0  0
  126.2034  112.7127  -42.3375 H   0  0  0  1  0  1  0  0  0  0  0  0
  127.0587  110.7305  -41.1554 H   0  0  0  1  0  1  0  0  0  0  0  0
  127.8143  110.8924  -42.7778 H   0  0  0  1  0  1  0  0  0  0  0  0
  126.5171  109.6795  -42.5097 H   0  0  0  1  0  1  0  0  0  0  0  0
  126.1780  109.0590  -43.5110 H   0  0  0  1  0  1  0  0  0  0  0  0
  126.9210  109.5950  -45.0570 H   0  0  0  1  0  1  0  0  0  0  0  0
  125.2890  108.3140  -46.3430 H   0  0  0  1  0  1  0  0  0  0  0  0
  126.0750  107.2320  -45.1430 H   0  0  0  1  0  1  0  0  0  0  0  0
  123.5965  100.8678  -51.7382 H   0  0  0  1  0  1  0  0  0  0  0  0
  123.5529   99.4242  -53.7509 H   0  0  0  1  0  1  0  0  0  0  0  0
  124.4045   97.1002  -53.6284 H   0  0  0  1  0  1  0  0  0  0  0  0
  125.2801   96.2144  -51.4810 H   0  0  0  1  0  1  0  0  0  0  0  0
  125.3346   97.6660  -49.4695 H   0  0  0  1  0  1  0  0  0  0  0  0
  1 10  1  0  0  0  0
  1 11  1  0  0  0  0
  1 22  1  0  0  0  0
  1 33  1  0  0  0  0
  2 16  1  0  0  0  0
  2 17  1  0  0  0  0
  2 19  1  0  0  0  0
  2 38  1  0  0  0  0
  3  4  1  0  0  0  0
  3  9  2  0  0  0  0
  3 12  1  0  0  0  0
  4  5  3  0  0  0  0
  5  6  1  0  0  0  0
  6 28  1  0  0  0  0
  6 31  1  0  0  0  0
  6 32  1  0  0  0  0
  7 23  2  0  0  0  0
  7 27  1  0  0  0  0
  7 28  1  0  0  0  0
  8 10  1  0  0  0  0
  8 12  2  0  0  0  0
  8 14  1  0  0  0  0
  9 13  1  0  0  0  0
  9 35  1  0  0  0  0
 10 36  1  0  0  0  0
 10 37  1  0  0  0  0
 11 15  1  0  0  0  0
 11 39  1  0  0  0  0
 11 40  1  0  0  0  0
 12 41  1  0  0  0  0
 13 14  2  0  0  0  0
 13 30  1  0  0  0  0
 14 29  1  0  0  0  0
 15 16  1  0  0  0  0
 15 42  1  0  0  0  0
 15 43  1  0  0  0  0
 16 21  1  0  0  0  0
 16 44  1  0  0  0  0
 17 18  1  0  0  0  0
 17 45  1  0  0  0  0
 17 46  1  0  0  0  0
 18 47  1  0  0  0  0
 18 48  1  0  0  0  0
 18 49  1  0  0  0  0
 19 20  1  0  0  0  0
 19 50  1  0  0  0  0
 19 51  1  0  0  0  0
 20 52  1  0  0  0  0
 20 53  1  0  0  0  0
 20 54  1  0  0  0  0
 21 22  1  0  0  0  0
 21 55  1  0  0  0  0
 21 56  1  0  0  0  0
 22 57  1  0  0  0  0
 22 58  1  0  0  0  0
 23 24  1  0  0  0  0
 23 59  1  0  0  0  0
 24 25  2  0  0  0  0
 24 60  1  0  0  0  0
 25 26  1  0  0  0  0
 25 61  1  0  0  0  0
 26 27  2  0  0  0  0
 26 62  1  0  0  0  0
 27 63  1  0  0  0  0
 29 34  1  0  0  0  0
M  END
> <ConfScore>
-0.513515

$$$$
4agp


 63 65  0  0  0  0  0  0  0  0999 V2000
  124.0460  107.7170  -44.7230 N   0  3  0  1  0  4  0  0  0  0  0  0
  125.5080  111.7370  -44.1130 N   0  3  0  1  0  4  0  0  0  0  0  0
  124.6656  102.9364  -45.4277 C   0  0  0  1  0  3  0  0  0  0  0  0
  124.7735  101.8643  -46.3740 C   0  0  0  1  0  2  0  0  0  0  0  0
  124.8435  101.0014  -47.1982 C   0  0  0  1  0  2  0  0  0  0  0  0
  124.9594   99.8903  -48.1639 C   0  0  0  1  0  4  0  0  0  0  0  0
  123.1370  100.5149  -49.6206 C   0  0  0  1  0  3  0  0  0  0  0  0
  124.0568  105.2395  -44.9573 C   0  0  0  1  0  3  0  0  0  0  0  0
  125.0804  102.7574  -44.1045 C   0  0  0  1  0  3  0  0  0  0  0  0
  123.4970  106.5410  -45.4510 C   0  0  0  1  0  4  0  0  0  0  0  0
  123.0770  108.8710  -44.7550 C   0  0  0  1  0  4  0  0  0  0  0  0
  124.1586  104.1758  -45.8600 C   0  0  0  1  0  3  0  0  0  0  0  0
  124.9665  103.8424  -43.2266 C   0  0  0  1  0  3  0  0  0  0  0  0
  124.4617  105.0952  -43.6044 C   0  0  0  1  0  3  0  0  0  0  0  0
  123.6820  109.9950  -43.9370 C   0  0  0  1  0  4  0  0  0  0  0  0
  124.9420  110.4210  -44.6780 C   0  0  0  1  0  4  0  0  0  0  0  0
  125.9435  111.5893  -42.6498 C   0  0  0  1  0  4  0  0  0  0  0  0
  127.0042  110.5070  -42.5828 C   0  0  0  1  0  4  0  0  0  0  0  0
  124.5879  112.9445  -44.2342 C   0  0  0  1  0  4  0  0  0  0  0  0
  123.2812  112.7954  -43.4671 C   0  0  0  1  0  4  0  0  0  0  0  0
  125.9830  109.2940  -44.5690 C   0  0  0  1  0  4  0  0  0  0  0  0
  125.3930  108.0860  -45.2720 C   0  0  0  1  0  4  0  0  0  0  0  0
  122.7821  100.9227  -50.9095 C   0  0  0  1  0  3  0  0  0  0  0  0
  121.4487  101.1929  -51.2258 C   0  0  0  1  0  3  0  0  0  0  0  0
  120.4613  101.0574  -50.2520 C   0  0  0  1  0  3  0  0  0  0  0  0
  120.8084  100.6561  -48.9606 C   0  0  0  1  0  3  0  0  0  0  0  0
  122.1446  100.3821  -48.6478 C   0  0  0  1  0  3  0  0  0  0  0  0
  124.4809  100.2863  -49.4517 O   0  0  0  1  0  2  0  0  0  0  0  0
  124.3645  106.1435  -42.7436 O   0  0  0  1  0  2  0  0  0  0  0  0
  125.5788  103.5676  -41.2143 I   0  0  0  1  0  1  0  0  0  0  0  0
  124.3659   99.0364  -47.8048 H   0  0  0  1  0  1  0  0  0  0  0  0
  126.0154   99.5923  -48.2470 H   0  0  0  1  0  1  0  0  0  0  0  0
  124.1710  107.4530  -43.7580 H   0  0  0  1  0  1  0  0  0  0  0  0
  124.6750  105.8775  -41.8864 H   0  0  0  1  0  1  0  0  0  0  0  0
  125.4791  101.8081  -43.7678 H   0  0  0  1  0  1  0  0  0  0  0  0
  122.4046  106.5262  -45.3215 H   0  0  0  1  0  1  0  0  0  0  0  0
  123.7377  106.6443  -46.5183 H   0  0  0  1  0  1  0  0  0  0  0  0
  126.3337  111.9449  -44.6550 H   0  0  0  1  0  1  0  0  0  0  0  0
  122.1150  108.5650  -44.3200 H   0  0  0  1  0  1  0  0  0  0  0  0
  122.9220  109.2020  -45.7920 H   0  0  0  1  0  1  0  0  0  0  0  0
  123.8480  104.3063  -46.8896 H   0  0  0  1  0  1  0  0  0  0  0  0
  123.9340  109.6410  -42.9260 H   0  0  0  1  0  1  0  0  0  0  0  0
  122.9770  110.8370  -43.8650 H   0  0  0  1  0  1  0  0  0  0  0  0
  124.6940  110.5770  -45.7380 H   0  0  0  1  0  1  0  0  0  0  0  0
  125.0803  111.3043  -42.0302 H   0  0  0  1  0  1  0  0  0  0  0  0
  126.3579  112.5404  -42.2855 H   0  0  0  1  0  1  0  0  0  0  0  0
  127.8559  110.7865  -43.2210 H   0  0  0  1  0  1  0  0  0  0  0  0
  126.5794  109.5549  -42.9357 H   0  0  0  1  0  1  0  0  0  0  0  0
  127.3479  110.3931  -41.5430 H   0  0  0  1  0  1  0  0  0  0  0  0
  124.3514  113.0964  -45.2969 H   0  0  0  1  0  1  0  0  0  0  0  0
  125.1183  113.8264  -43.8471 H   0  0  0  1  0  1  0  0  0  0  0  0
  122.6726  113.7023  -43.5998 H   0  0  0  1  0  1  0  0  0  0  0  0
  123.4986  112.6518  -42.3982 H   0  0  0  1  0  1  0  0  0  0  0  0
  122.7299  111.9227  -43.8486 H   0  0  0  1  0  1  0  0  0  0  0  0
  126.1780  109.0590  -43.5110 H   0  0  0  1  0  1  0  0  0  0  0  0
  126.9210  109.5950  -45.0570 H   0  0  0  1  0  1  0  0  0  0  0  0
  125.2890  108.3140  -46.3430 H   0  0  0  1  0  1  0  0  0  0  0  0
  126.0750  107.2320  -45.1430 H   0  0  0  1  0  1  0  0  0  0  0  0
  123.5474  101.0294  -51.6699 H   0  0  0  1  0  1  0  0  0  0  0  0
  121.1820  101.5096  -52.2279 H   0  0  0  1  0  1  0  0  0  0  0  0
  119.4255  101.2638  -50.4973 H   0  0  0  1  0  1  0  0  0  0  0  0
  120.0426  100.5576  -48.1988 H   0  0  0  1  0  1  0  0  0  0  0  0
  122.4105  100.0648  -47.6454 H   0  0  0  1  0  1  0  0  0  0  0  0
  1 10  1  0  0  0  0
  1 11  1  0  0  0  0
  1 22  1  0  0  0  0
  1 33  1  0  0  0  0
  2 16  1  0  0  0  0
  2 17  1  0  0  0  0
  2 19  1  0  0  0  0
  2 38  1  0  0  0  0
  3  4  1  0  0  0  0
  3  9  2  0  0  0  0
  3 12  1  0  0  0  0
  4  5  3  0  0  0  0
  5  6  1  0  0  0  0
  6 28  1  0  0  0  0
  6 31  1  0  0  0  0
  6 32  1  0  0  0  0
  7 23  2  0  0  0  0
  7 27  1  0  0  0  0
  7 28  1  0  0  0  0
  8 10  1  0  0  0  0
  8 12  2  0  0  0  0
  8 14  1  0  0  0  0
  9 13  1  0  0  0  0
  9 35  1  0  0  0  0
 10 36  1  0  0  0  0
 10 37  1  0  0  0  0
 11 15  1  0  0  0  0
 11 39  1  0  0  0  0
 11 40  1  0  0  0  0
 12 41  1  0  0  0  0
 13 14  2  0  0  0  0
 13 30  1  0  0  0  0
 14 29  1  0  0  0  0
 15 16  1  0  0  0  0
 15 42  1  0  0  0  0
 15 43  1  0  0  0  0
 16 21  1  0  0  0  0
 16 44  1  0  0  0  0
 17 18  1  0  0  0  0
 17 45  1  0  0  0  0
 17 46  1  0  0  0  0
 18 47  1  0  0  0  0
 18 48  1  0  0  0  0
 18 49  1  0  0  0  0
 19 20  1  0  0  0  0
 19 50  1  0  0  0  0
 19 51  1  0  0  0  0
 20 52  1  0  0  0  0
 20 53  1  0  0  0  0
 20 54  1  0  0  0  0
 21 22  1  0  0  0  0
 21 55  1  0  0  0  0
 21 56  1  0  0  0  0
 22 57  1  0  0  0  0
 22 58  1  0  0  0  0
 23 24  1  0  0  0  0
 23 59  1  0  0  0  0
 24 25  2  0  0  0  0
 24 60  1  0  0  0  0
 25 26  1  0  0  0  0
 25 61  1  0  0  0  0
 26 27  2  0  0  0  0
 26 62  1  0  0  0  0
 27 63  1  0  0  0  0
 29 34  1  0  0  0  0
M  END
> <ConfScore>
-0.502029

$$$$
4agp


 63 65  0  0  0  0  0  0  0  0999 V2000
   90.4980   98.3810  -44.6910 N   0  3  0  1  0  4  0  0  0  0  0  0
   92.0484  102.3740  -44.2389 N   0  3  0  1  0  4  0  0  0  0  0  0
   91.0040   93.5374  -45.0640 C   0  0  0  1  0  3  0  0  0  0  0  0
   91.0248   92.3681  -45.8938 C   0  0  0  1  0  2  0  0  0  0  0  0
   91.0223   91.4212  -46.6234 C   0  0  0  1  0  2  0  0  0  0  0  0
   91.0485   90.2106  -47.4686 C   0  0  0  1  0  4  0  0  0  0  0  0
   90.5044   89.4857  -49.7073 C   0  0  0  1  0  3  0  0  0  0  0  0
   90.4948   95.8988  -44.7838 C   0  0  0  1  0  3  0  0  0  0  0  0
   91.4677   93.4593  -43.7444 C   0  0  0  1  0  3  0  0  0  0  0  0
   89.9050   97.1660  -45.3350 C   0  0  0  1  0  4  0  0  0  0  0  0
   89.5430   99.5450  -44.7170 C   0  0  0  1  0  4  0  0  0  0  0  0
   90.5195   94.7482  -45.5821 C   0  0  0  1  0  3  0  0  0  0  0  0
   91.4378   94.6248  -42.9613 C   0  0  0  1  0  3  0  0  0  0  0  0
   90.9571   95.8573  -43.4420 C   0  0  0  1  0  3  0  0  0  0  0  0
   90.1750  100.7310  -44.0050 C   0  0  0  1  0  4  0  0  0  0  0  0
   91.4300  101.0810  -44.8020 C   0  0  0  1  0  4  0  0  0  0  0  0
   93.2950  102.7996  -45.0245 C   0  0  0  1  0  4  0  0  0  0  0  0
   92.8880  103.0157  -46.4697 C   0  0  0  1  0  4  0  0  0  0  0  0
   92.3890  102.3382  -42.7550 C   0  0  0  1  0  4  0  0  0  0  0  0
   91.2022  101.9964  -41.8645 C   0  0  0  1  0  4  0  0  0  0  0  0
   92.4510   99.9400  -44.6950 C   0  0  0  1  0  4  0  0  0  0  0  0
   91.8210   98.7070  -45.3220 C   0  0  0  1  0  4  0  0  0  0  0  0
   89.9868   89.8699  -50.9475 C   0  0  0  1  0  3  0  0  0  0  0  0
   89.8915   88.9481  -51.9925 C   0  0  0  1  0  3  0  0  0  0  0  0
   90.3133   87.6338  -51.8017 C   0  0  0  1  0  3  0  0  0  0  0  0
   90.8262   87.2406  -50.5641 C   0  0  0  1  0  3  0  0  0  0  0  0
   90.9243   88.1675  -49.5202 C   0  0  0  1  0  3  0  0  0  0  0  0
   90.5373   90.4928  -48.7737 O   0  0  0  1  0  2  0  0  0  0  0  0
   90.9363   96.9644  -42.6525 O   0  0  0  1  0  2  0  0  0  0  0  0
   92.1485   94.5231  -40.9652 I   0  0  0  1  0  1  0  0  0  0  0  0
   90.4314   89.4296  -47.0000 H   0  0  0  1  0  1  0  0  0  0  0  0
   92.0856   89.8535  -47.5564 H   0  0  0  1  0  1  0  0  0  0  0  0
   90.6654   98.1804  -43.7172 H   0  0  0  1  0  1  0  0  0  0  0  0
   91.1813   97.7237  -43.1676 H   0  0  0  1  0  1  0  0  0  0  0  0
   91.8391   92.5258  -43.3392 H   0  0  0  1  0  1  0  0  0  0  0  0
   90.0974   97.2069  -46.4175 H   0  0  0  1  0  1  0  0  0  0  0  0
   88.8209   97.1614  -45.1551 H   0  0  0  1  0  1  0  0  0  0  0  0
   91.3532  103.0956  -44.3604 H   0  0  0  1  0  1  0  0  0  0  0  0
   88.6101   99.2656  -44.2072 H   0  0  0  1  0  1  0  0  0  0  0  0
   89.3242   99.8170  -45.7597 H   0  0  0  1  0  1  0  0  0  0  0  0
   90.1628   94.7931  -46.6041 H   0  0  0  1  0  1  0  0  0  0  0  0
   90.4414  100.4592  -42.9725 H   0  0  0  1  0  1  0  0  0  0  0  0
   89.4798  101.5841  -43.9926 H   0  0  0  1  0  1  0  0  0  0  0  0
   91.1613  101.2320  -45.8577 H   0  0  0  1  0  1  0  0  0  0  0  0
   94.0601  102.0113  -44.9665 H   0  0  0  1  0  1  0  0  0  0  0  0
   93.6988  103.7334  -44.6074 H   0  0  0  1  0  1  0  0  0  0  0  0
   92.1073  103.7895  -46.5203 H   0  0  0  1  0  1  0  0  0  0  0  0
   92.4976  102.0742  -46.8854 H   0  0  0  1  0  1  0  0  0  0  0  0
   93.7634  103.3401  -47.0535 H   0  0  0  1  0  1  0  0  0  0  0  0
   92.7701  103.3267  -42.4616 H   0  0  0  1  0  1  0  0  0  0  0  0
   93.1709  101.5818  -42.5956 H   0  0  0  1  0  1  0  0  0  0  0  0
   91.5237  101.9879  -40.8124 H   0  0  0  1  0  1  0  0  0  0  0  0
   90.8130  101.0045  -42.1382 H   0  0  0  1  0  1  0  0  0  0  0  0
   90.4120  102.7500  -42.0021 H   0  0  0  1  0  1  0  0  0  0  0  0
   92.6881   99.7451  -43.6375 H   0  0  0  1  0  1  0  0  0  0  0  0
   93.3710  100.2073  -45.2341 H   0  0  0  1  0  1  0  0  0  0  0  0
   91.6686   98.8909  -46.3957 H   0  0  0  1  0  1  0  0  0  0  0  0
   92.5006   97.8518  -45.1886 H   0  0  0  1  0  1  0  0  0  0  0  0
   89.6575   90.8915  -51.0999 H   0  0  0  1  0  1  0  0  0  0  0  0
   89.4879   89.2542  -52.9512 H   0  0  0  1  0  1  0  0  0  0  0  0
   90.2428   86.9182  -52.6132 H   0  0  0  1  0  1  0  0  0  0  0  0
   91.1478   86.2162  -50.4108 H   0  0  0  1  0  1  0  0  0  0  0  0
   91.3286   87.8608  -48.5618 H   0  0  0  1  0  1  0  0  0  0  0  0
  1 10  1  0  0  0  0
  1 11  1  0  0  0  0
  1 22  1  0  0  0  0
  1 33  1  0  0  0  0
  2 16  1  0  0  0  0
  2 17  1  0  0  0  0
  2 19  1  0  0  0  0
  2 38  1  0  0  0  0
  3  4  1  0  0  0  0
  3  9  2  0  0  0  0
  3 12  1  0  0  0  0
  4  5  3  0  0  0  0
  5  6  1  0  0  0  0
  6 28  1  0  0  0  0
  6 31  1  0  0  0  0
  6 32  1  0  0  0  0
  7 23  2  0  0  0  0
  7 27  1  0  0  0  0
  7 28  1  0  0  0  0
  8 10  1  0  0  0  0
  8 12  2  0  0  0  0
  8 14  1  0  0  0  0
  9 13  1  0  0  0  0
  9 35  1  0  0  0  0
 10 36  1  0  0  0  0
 10 37  1  0  0  0  0
 11 15  1  0  0  0  0
 11 39  1  0  0  0  0
 11 40  1  0  0  0  0
 12 41  1  0  0  0  0
 13 14  2  0  0  0  0
 13 30  1  0  0  0  0
 14 29  1  0  0  0  0
 15 16  1  0  0  0  0
 15 42  1  0  0  0  0
 15 43  1  0  0  0  0
 16 21  1  0  0  0  0
 16 44  1  0  0  0  0
 17 18  1  0  0  0  0
 17 45  1  0  0  0  0
 17 46  1  0  0  0  0
 18 47  1  0  0  0  0
 18 48  1  0  0  0  0
 18 49  1  0  0  0  0
 19 20  1  0  0  0  0
 19 50  1  0  0  0  0
 19 51  1  0  0  0  0
 20 52  1  0  0  0  0
 20 53  1  0  0  0  0
 20 54  1  0  0  0  0
 21 22  1  0  0  0  0
 21 55  1  0  0  0  0
 21 56  1  0  0  0  0
 22 57  1  0  0  0  0
 22 58  1  0  0  0  0
 23 24  1  0  0  0  0
 23 59  1  0  0  0  0
 24 25  2  0  0  0  0
 24 60  1  0  0  0  0
 25 26  1  0  0  0  0
 25 61  1  0  0  0  0
 26 27  2  0  0  0  0
 26 62  1  0  0  0  0
 27 63  1  0  0  0  0
 29 34  1  0  0  0  0
M  END
> <ConfScore>
-0.497008

$$$$
4agp


 63 65  0  0  0  0  0  0  0  0999 V2000
  124.0460  107.7170  -44.7230 N   0  3  0  1  0  4  0  0  0  0  0  0
  125.5080  111.7370  -44.1130 N   0  3  0  1  0  4  0  0  0  0  0  0
  125.1852  103.2793  -46.3842 C   0  0  0  1  0  3  0  0  0  0  0  0
  125.1537  102.3614  -47.4855 C   0  0  0  1  0  2  0  0  0  0  0  0
  125.0924  101.6259  -48.4257 C   0  0  0  1  0  2  0  0  0  0  0  0
  125.0685  100.6737  -49.5542 C   0  0  0  1  0  4  0  0  0  0  0  0
  124.5222  102.0610  -51.4544 C   0  0  0  1  0  3  0  0  0  0  0  0
  124.3930  105.3401  -45.3733 C   0  0  0  1  0  3  0  0  0  0  0  0
  126.0318  103.0501  -45.2952 C   0  0  0  1  0  3  0  0  0  0  0  0
  123.4970  106.5410  -45.4510 C   0  0  0  1  0  4  0  0  0  0  0  0
  123.0770  108.8710  -44.7550 C   0  0  0  1  0  4  0  0  0  0  0  0
  124.3686  104.4244  -46.4304 C   0  0  0  1  0  3  0  0  0  0  0  0
  126.0333  103.9867  -44.2542 C   0  0  0  1  0  3  0  0  0  0  0  0
  125.2343  105.1393  -44.2477 C   0  0  0  1  0  3  0  0  0  0  0  0
  123.6820  109.9950  -43.9370 C   0  0  0  1  0  4  0  0  0  0  0  0
  124.9420  110.4210  -44.6780 C   0  0  0  1  0  4  0  0  0  0  0  0
  124.4285  112.8207  -44.0004 C   0  0  0  1  0  4  0  0  0  0  0  0
  125.0541  114.0406  -43.3511 C   0  0  0  1  0  4  0  0  0  0  0  0
  126.7022  112.3069  -44.8670 C   0  0  0  1  0  4  0  0  0  0  0  0
  127.8836  111.3502  -44.9514 C   0  0  0  1  0  4  0  0  0  0  0  0
  125.9830  109.2940  -44.5690 C   0  0  0  1  0  4  0  0  0  0  0  0
  125.3930  108.0860  -45.2720 C   0  0  0  1  0  4  0  0  0  0  0  0
  125.8194  102.5435  -51.2598 C   0  0  0  1  0  3  0  0  0  0  0  0
  126.3430  103.5288  -52.1001 C   0  0  0  1  0  3  0  0  0  0  0  0
  125.5695  104.0386  -53.1410 C   0  0  0  1  0  3  0  0  0  0  0  0
  124.2707  103.5660  -53.3385 C   0  0  0  1  0  3  0  0  0  0  0  0
  123.7503  102.5757  -52.4975 C   0  0  0  1  0  3  0  0  0  0  0  0
  124.1384  101.0968  -50.5544 O   0  0  0  1  0  2  0  0  0  0  0  0
  125.2518  106.0455  -43.2338 O   0  0  0  1  0  2  0  0  0  0  0  0
  127.3040  103.6317  -42.5931 I   0  0  0  1  0  1  0  0  0  0  0  0
  124.7731   99.6811  -49.1830 H   0  0  0  1  0  1  0  0  0  0  0  0
  126.0736  100.6139  -49.9980 H   0  0  0  1  0  1  0  0  0  0  0  0
  124.1710  107.4530  -43.7580 H   0  0  0  1  0  1  0  0  0  0  0  0
  125.8638  105.7598  -42.5661 H   0  0  0  1  0  1  0  0  0  0  0  0
  126.6688  102.1746  -45.2577 H   0  0  0  1  0  1  0  0  0  0  0  0
  122.5213  106.2813  -45.0139 H   0  0  0  1  0  1  0  0  0  0  0  0
  123.3642  106.8120  -46.5077 H   0  0  0  1  0  1  0  0  0  0  0  0
  125.8267  111.5289  -43.1782 H   0  0  0  1  0  1  0  0  0  0  0  0
  122.1150  108.5650  -44.3200 H   0  0  0  1  0  1  0  0  0  0  0  0
  122.9220  109.2020  -45.7920 H   0  0  0  1  0  1  0  0  0  0  0  0
  123.7226  104.5968  -47.2828 H   0  0  0  1  0  1  0  0  0  0  0  0
  123.9340  109.6410  -42.9260 H   0  0  0  1  0  1  0  0  0  0  0  0
  122.9770  110.8370  -43.8650 H   0  0  0  1  0  1  0  0  0  0  0  0
  124.6940  110.5770  -45.7380 H   0  0  0  1  0  1  0  0  0  0  0  0
  123.5954  112.4551  -43.3818 H   0  0  0  1  0  1  0  0  0  0  0  0
  124.0549  113.0814  -45.0011 H   0  0  0  1  0  1  0  0  0  0  0  0
  125.9002  114.3894  -43.9622 H   0  0  0  1  0  1  0  0  0  0  0  0
  125.4135  113.7767  -42.3448 H   0  0  0  1  0  1  0  0  0  0  0  0
  124.3029  114.8420  -43.2745 H   0  0  0  1  0  1  0  0  0  0  0  0
  127.0322  113.2221  -44.3552 H   0  0  0  1  0  1  0  0  0  0  0  0
  126.3825  112.5538  -45.8896 H   0  0  0  1  0  1  0  0  0  0  0  0
  128.7033  111.8280  -45.5084 H   0  0  0  1  0  1  0  0  0  0  0  0
  127.5738  110.4308  -45.4700 H   0  0  0  1  0  1  0  0  0  0  0  0
  128.2255  111.0997  -43.9358 H   0  0  0  1  0  1  0  0  0  0  0  0
  126.1780  109.0590  -43.5110 H   0  0  0  1  0  1  0  0  0  0  0  0
  126.9210  109.5950  -45.0570 H   0  0  0  1  0  1  0  0  0  0  0  0
  125.2890  108.3140  -46.3430 H   0  0  0  1  0  1  0  0  0  0  0  0
  126.0750  107.2320  -45.1430 H   0  0  0  1  0  1  0  0  0  0  0  0
  126.4244  102.1495  -50.4511 H   0  0  0  1  0  1  0  0  0  0  0  0
  127.3499  103.8983  -51.9417 H   0  0  0  1  0  1  0  0  0  0  0  0
  125.9760  104.8011  -53.7959 H   0  0  0  1  0  1  0  0  0  0  0  0
  123.6639  103.9670  -54.1431 H   0  0  0  1  0  1  0  0  0  0  0  0
  122.7432  102.2063  -52.6570 H   0  0  0  1  0  1  0  0  0  0  0  0
  1 10  1  0  0  0  0
  1 11  1  0  0  0  0
  1 22  1  0  0  0  0
  1 33  1  0  0  0  0
  2 16  1  0  0  0  0
  2 17  1  0  0  0  0
  2 19  1  0  0  0  0
  2 38  1  0  0  0  0
  3  4  1  0  0  0  0
  3  9  2  0  0  0  0
  3 12  1  0  0  0  0
  4  5  3  0  0  0  0
  5  6  1  0  0  0  0
  6 28  1  0  0  0  0
  6 31  1  0  0  0  0
  6 32  1  0  0  0  0
  7 23  2  0  0  0  0
  7 27  1  0  0  0  0
  7 28  1  0  0  0  0
  8 10  1  0  0  0  0
  8 12  2  0  0  0  0
  8 14  1  0  0  0  0
  9 13  1  0  0  0  0
  9 35  1  0  0  0  0
 10 36  1  0  0  0  0
 10 37  1  0  0  0  0
 11 15  1  0  0  0  0
 11 39  1  0  0  0  0
 11 40  1  0  0  0  0
 12 41  1  0  0  0  0
 13 14  2  0  0  0  0
 13 30  1  0  0  0  0
 14 29  1  0  0  0  0
 15 16  1  0  0  0  0
 15 42  1  0  0  0  0
 15 43  1  0  0  0  0
 16 21  1  0  0  0  0
 16 44  1  0  0  0  0
 17 18  1  0  0  0  0
 17 45  1  0  0  0  0
 17 46  1  0  0  0  0
 18 47  1  0  0  0  0
 18 48  1  0  0  0  0
 18 49  1  0  0  0  0
 19 20  1  0  0  0  0
 19 50  1  0  0  0  0
 19 51  1  0  0  0  0
 20 52  1  0  0  0  0
 20 53  1  0  0  0  0
 20 54  1  0  0  0  0
 21 22  1  0  0  0  0
 21 55  1  0  0  0  0
 21 56  1  0  0  0  0
 22 57  1  0  0  0  0
 22 58  1  0  0  0  0
 23 24  1  0  0  0  0
 23 59  1  0  0  0  0
 24 25  2  0  0  0  0
 24 60  1  0  0  0  0
 25 26  1  0  0  0  0
 25 61  1  0  0  0  0
 26 27  2  0  0  0  0
 26 62  1  0  0  0  0
 27 63  1  0  0  0  0
 29 34  1  0  0  0  0
M  END
> <ConfScore>
-0.492679

$$$$
4agp


 63 65  0  0  0  0  0  0  0  0999 V2000
  124.0460  107.7170  -44.7230 N   0  3  0  1  0  4  0  0  0  0  0  0
  125.5080  111.7370  -44.1130 N   0  3  0  1  0  4  0  0  0  0  0  0
  124.6656  102.9364  -45.4277 C   0  0  0  1  0  3  0  0  0  0  0  0
  124.7735  101.8643  -46.3740 C   0  0  0  1  0  2  0  0  0  0  0  0
  124.8435  101.0014  -47.1982 C   0  0  0  1  0  2  0  0  0  0  0  0
  124.9594   99.8903  -48.1639 C   0  0  0  1  0  4  0  0  0  0  0  0
  125.1394  101.2842  -50.1281 C   0  0  0  1  0  3  0  0  0  0  0  0
  124.0568  105.2395  -44.9573 C   0  0  0  1  0  3  0  0  0  0  0  0
  125.0804  102.7574  -44.1045 C   0  0  0  1  0  3  0  0  0  0  0  0
  123.4970  106.5410  -45.4510 C   0  0  0  1  0  4  0  0  0  0  0  0
  123.0770  108.8710  -44.7550 C   0  0  0  1  0  4  0  0  0  0  0  0
  124.1586  104.1758  -45.8600 C   0  0  0  1  0  3  0  0  0  0  0  0
  124.9665  103.8424  -43.2266 C   0  0  0  1  0  3  0  0  0  0  0  0
  124.4617  105.0952  -43.6044 C   0  0  0  1  0  3  0  0  0  0  0  0
  123.6820  109.9950  -43.9370 C   0  0  0  1  0  4  0  0  0  0  0  0
  124.9420  110.4210  -44.6780 C   0  0  0  1  0  4  0  0  0  0  0  0
  125.9435  111.5893  -42.6498 C   0  0  0  1  0  4  0  0  0  0  0  0
  127.0042  110.5070  -42.5828 C   0  0  0  1  0  4  0  0  0  0  0  0
  124.5879  112.9445  -44.2342 C   0  0  0  1  0  4  0  0  0  0  0  0
  123.2812  112.7954  -43.4671 C   0  0  0  1  0  4  0  0  0  0  0  0
  125.9830  109.2940  -44.5690 C   0  0  0  1  0  4  0  0  0  0  0  0
  125.3930  108.0860  -45.2720 C   0  0  0  1  0  4  0  0  0  0  0  0
  124.6052  101.5733  -51.3868 C   0  0  0  1  0  3  0  0  0  0  0  0
  125.1748  102.5654  -52.1882 C   0  0  0  1  0  3  0  0  0  0  0  0
  126.2850  103.2745  -51.7340 C   0  0  0  1  0  3  0  0  0  0  0  0
  126.8282  102.9878  -50.4802 C   0  0  0  1  0  3  0  0  0  0  0  0
  126.2528  101.9960  -49.6779 C   0  0  0  1  0  3  0  0  0  0  0  0
  124.4809  100.2863  -49.4517 O   0  0  0  1  0  2  0  0  0  0  0  0
  124.3645  106.1435  -42.7436 O   0  0  0  1  0  2  0  0  0  0  0  0
  125.5788  103.5676  -41.2143 I   0  0  0  1  0  1  0  0  0  0  0  0
  124.3659   99.0364  -47.8048 H   0  0  0  1  0  1  0  0  0  0  0  0
  126.0154   99.5923  -48.2470 H   0  0  0  1  0  1  0  0  0  0  0  0
  124.1710  107.4530  -43.7580 H   0  0  0  1  0  1  0  0  0  0  0  0
  124.6750  105.8775  -41.8864 H   0  0  0  1  0  1  0  0  0  0  0  0
  125.4791  101.8081  -43.7678 H   0  0  0  1  0  1  0  0  0  0  0  0
  122.4046  106.5262  -45.3215 H   0  0  0  1  0  1  0  0  0  0  0  0
  123.7377  106.6443  -46.5183 H   0  0  0  1  0  1  0  0  0  0  0  0
  126.3337  111.9449  -44.6550 H   0  0  0  1  0  1  0  0  0  0  0  0
  122.1150  108.5650  -44.3200 H   0  0  0  1  0  1  0  0  0  0  0  0
  122.9220  109.2020  -45.7920 H   0  0  0  1  0  1  0  0  0  0  0  0
  123.8480  104.3063  -46.8896 H   0  0  0  1  0  1  0  0  0  0  0  0
  123.9340  109.6410  -42.9260 H   0  0  0  1  0  1  0  0  0  0  0  0
  122.9770  110.8370  -43.8650 H   0  0  0  1  0  1  0  0  0  0  0  0
  124.6940  110.5770  -45.7380 H   0  0  0  1  0  1  0  0  0  0  0  0
  125.0803  111.3043  -42.0302 H   0  0  0  1  0  1  0  0  0  0  0  0
  126.3579  112.5404  -42.2855 H   0  0  0  1  0  1  0  0  0  0  0  0
  127.8559  110.7865  -43.2210 H   0  0  0  1  0  1  0  0  0  0  0  0
  126.5794  109.5549  -42.9357 H   0  0  0  1  0  1  0  0  0  0  0  0
  127.3479  110.3931  -41.5430 H   0  0  0  1  0  1  0  0  0  0  0  0
  124.3514  113.0964  -45.2969 H   0  0  0  1  0  1  0  0  0  0  0  0
  125.1183  113.8264  -43.8471 H   0  0  0  1  0  1  0  0  0  0  0  0
  122.6726  113.7023  -43.5998 H   0  0  0  1  0  1  0  0  0  0  0  0
  123.4986  112.6518  -42.3982 H   0  0  0  1  0  1  0  0  0  0  0  0
  122.7299  111.9227  -43.8486 H   0  0  0  1  0  1  0  0  0  0  0  0
  126.1780  109.0590  -43.5110 H   0  0  0  1  0  1  0  0  0  0  0  0
  126.9210  109.5950  -45.0570 H   0  0  0  1  0  1  0  0  0  0  0  0
  125.2890  108.3140  -46.3430 H   0  0  0  1  0  1  0  0  0  0  0  0
  126.0750  107.2320  -45.1430 H   0  0  0  1  0  1  0  0  0  0  0  0
  123.7414  101.0239  -51.7437 H   0  0  0  1  0  1  0  0  0  0  0  0
  124.7546  102.7828  -53.1637 H   0  0  0  1  0  1  0  0  0  0  0  0
  126.7260  104.0471  -52.3539 H   0  0  0  1  0  1  0  0  0  0  0  0
  127.6973  103.5328  -50.1280 H   0  0  0  1  0  1  0  0  0  0  0  0
  126.6733  101.7796  -48.7019 H   0  0  0  1  0  1  0  0  0  0  0  0
  1 10  1  0  0  0  0
  1 11  1  0  0  0  0
  1 22  1  0  0  0  0
  1 33  1  0  0  0  0
  2 16  1  0  0  0  0
  2 17  1  0  0  0  0
  2 19  1  0  0  0  0
  2 38  1  0  0  0  0
  3  4  1  0  0  0  0
  3  9  2  0  0  0  0
  3 12  1  0  0  0  0
  4  5  3  0  0  0  0
  5  6  1  0  0  0  0
  6 28  1  0  0  0  0
  6 31  1  0  0  0  0
  6 32  1  0  0  0  0
  7 23  2  0  0  0  0
  7 27  1  0  0  0  0
  7 28  1  0  0  0  0
  8 10  1  0  0  0  0
  8 12  2  0  0  0  0
  8 14  1  0  0  0  0
  9 13  1  0  0  0  0
  9 35  1  0  0  0  0
 10 36  1  0  0  0  0
 10 37  1  0  0  0  0
 11 15  1  0  0  0  0
 11 39  1  0  0  0  0
 11 40  1  0  0  0  0
 12 41  1  0  0  0  0
 13 14  2  0  0  0  0
 13 30  1  0  0  0  0
 14 29  1  0  0  0  0
 15 16  1  0  0  0  0
 15 42  1  0  0  0  0
 15 43  1  0  0  0  0
 16 21  1  0  0  0  0
 16 44  1  0  0  0  0
 17 18  1  0  0  0  0
 17 45  1  0  0  0  0
 17 46  1  0  0  0  0
 18 47  1  0  0  0  0
 18 48  1  0  0  0  0
 18 49  1  0  0  0  0
 19 20  1  0  0  0  0
 19 50  1  0  0  0  0
 19 51  1  0  0  0  0
 20 52  1  0  0  0  0
 20 53  1  0  0  0  0
 20 54  1  0  0  0  0
 21 22  1  0  0  0  0
 21 55  1  0  0  0  0
 21 56  1  0  0  0  0
 22 57  1  0  0  0  0
 22 58  1  0  0  0  0
 23 24  1  0  0  0  0
 23 59  1  0  0  0  0
 24 25  2  0  0  0  0
 24 60  1  0  0  0  0
 25 26  1  0  0  0  0
 25 61  1  0  0  0  0
 26 27  2  0  0  0  0
 26 62  1  0  0  0  0
 27 63  1  0  0  0  0
 29 34  1  0  0  0  0
M  END
> <ConfScore>
-0.48399

$$$$
4agp


 63 65  0  0  0  0  0  0  0  0999 V2000
    5.4320    2.2550   28.3390 N   0  3  0  1  0  4  0  0  0  0  0  0
    4.8056   -1.3098   27.7638 N   0  3  0  1  0  4  0  0  0  0  0  0
    8.5748    5.9961   27.9781 C   0  0  0  1  0  3  0  0  0  0  0  0
    9.9176    6.4646   28.1623 C   0  0  0  1  0  2  0  0  0  0  0  0
   11.0460    6.8142   28.3447 C   0  0  0  1  0  2  0  0  0  0  0  0
   12.4262    7.3065   28.5273 C   0  0  0  1  0  4  0  0  0  0  0  0
   14.4890    6.7106   29.6333 C   0  0  0  1  0  3  0  0  0  0  0  0
    6.8799    4.3500   28.3599 C   0  0  0  1  0  3  0  0  0  0  0  0
    7.6878    6.7185   27.2108 C   0  0  0  1  0  3  0  0  0  0  0  0
    6.4640    3.0610   28.9950 C   0  0  0  1  0  4  0  0  0  0  0  0
    6.0520    1.4770   27.2550 C   0  0  0  1  0  4  0  0  0  0  0  0
    8.1652    4.8245   28.5654 C   0  0  0  1  0  3  0  0  0  0  0  0
    6.3876    6.2645   27.0259 C   0  0  0  1  0  3  0  0  0  0  0  0
    5.9794    5.0810   27.6033 C   0  0  0  1  0  3  0  0  0  0  0  0
    4.9600    0.8100   26.4490 C   0  0  0  1  0  4  0  0  0  0  0  0
    4.0370   -0.0500   27.3240 C   0  0  0  1  0  4  0  0  0  0  0  0
    6.0060   -0.9644   28.6539 C   0  0  0  1  0  4  0  0  0  0  0  0
    6.6405   -2.2640   29.1115 C   0  0  0  1  0  4  0  0  0  0  0  0
    5.2755   -2.2124   26.6307 C   0  0  0  1  0  4  0  0  0  0  0  0
    4.1406   -2.7589   25.7753 C   0  0  0  1  0  4  0  0  0  0  0  0
    3.5580    0.6920   28.5700 C   0  0  0  1  0  4  0  0  0  0  0  0
    4.7240    1.3610   29.2750 C   0  0  0  1  0  4  0  0  0  0  0  0
   15.1207    5.7863   30.4699 C   0  0  0  1  0  3  0  0  0  0  0  0
   16.4559    5.9620   30.8408 C   0  0  0  1  0  3  0  0  0  0  0  0
   17.1674    7.0665   30.3765 C   0  0  0  1  0  3  0  0  0  0  0  0
   16.5419    7.9975   29.5451 C   0  0  0  1  0  3  0  0  0  0  0  0
   15.2053    7.8165   29.1719 C   0  0  0  1  0  3  0  0  0  0  0  0
   13.1775    6.4133   29.3532 O   0  0  0  1  0  2  0  0  0  0  0  0
    4.7059    4.6360   27.4315 O   0  0  0  1  0  2  0  0  0  0  0  0
    5.0284    7.3945   25.8531 I   0  0  0  1  0  1  0  0  0  0  0  0
   12.3959    8.2984   29.0022 H   0  0  0  1  0  1  0  0  0  0  0  0
   12.9144    7.3864   27.5445 H   0  0  0  1  0  1  0  0  0  0  0  0
    4.7369    2.8837   27.9672 H   0  0  0  1  0  1  0  0  0  0  0  0
    4.1510    4.9976   28.1122 H   0  0  0  1  0  1  0  0  0  0  0  0
    8.0056    7.6456   26.7492 H   0  0  0  1  0  1  0  0  0  0  0  0
    7.3642    2.4333   29.0731 H   0  0  0  1  0  1  0  0  0  0  0  0
    6.0955    3.3008   30.0022 H   0  0  0  1  0  1  0  0  0  0  0  0
    4.1624   -1.8530   28.3206 H   0  0  0  1  0  1  0  0  0  0  0  0
    6.7157    0.7119   27.6822 H   0  0  0  1  0  1  0  0  0  0  0  0
    6.6341    2.1467   26.6056 H   0  0  0  1  0  1  0  0  0  0  0  0
    8.8509    4.2681   29.1931 H   0  0  0  1  0  1  0  0  0  0  0  0
    5.4248    0.1675   25.6861 H   0  0  0  1  0  1  0  0  0  0  0  0
    4.3575    1.5882   25.9564 H   0  0  0  1  0  1  0  0  0  0  0  0
    3.1599   -0.3440   26.7292 H   0  0  0  1  0  1  0  0  0  0  0  0
    5.6692   -0.3862   29.5272 H   0  0  0  1  0  1  0  0  0  0  0  0
    6.7367   -0.3735   28.0830 H   0  0  0  1  0  1  0  0  0  0  0  0
    6.9559   -2.8482   28.2340 H   0  0  0  1  0  1  0  0  0  0  0  0
    5.9086   -2.8443   29.6938 H   0  0  0  1  0  1  0  0  0  0  0  0
    7.5178   -2.0436   29.7392 H   0  0  0  1  0  1  0  0  0  0  0  0
    5.8221   -3.0611   27.0659 H   0  0  0  1  0  1  0  0  0  0  0  0
    5.9505   -1.6349   25.9829 H   0  0  0  1  0  1  0  0  0  0  0  0
    4.5549   -3.3975   24.9810 H   0  0  0  1  0  1  0  0  0  0  0  0
    3.5873   -1.9223   25.3234 H   0  0  0  1  0  1  0  0  0  0  0  0
    3.4590   -3.3502   26.4053 H   0  0  0  1  0  1  0  0  0  0  0  0
    3.0827   -0.0249   29.2576 H   0  0  0  1  0  1  0  0  0  0  0  0
    2.8266    1.4580   28.2753 H   0  0  0  1  0  1  0  0  0  0  0  0
    4.3473    1.9483   30.1253 H   0  0  0  1  0  1  0  0  0  0  0  0
    5.4199    0.5906   29.6402 H   0  0  0  1  0  1  0  0  0  0  0  0
   14.5706    4.9256   30.8333 H   0  0  0  1  0  1  0  0  0  0  0  0
   16.9381    5.2406   31.4908 H   0  0  0  1  0  1  0  0  0  0  0  0
   18.2048    7.2022   30.6611 H   0  0  0  1  0  1  0  0  0  0  0  0
   17.0913    8.8622   29.1890 H   0  0  0  1  0  1  0  0  0  0  0  0
   14.7238    8.5382   28.5213 H   0  0  0  1  0  1  0  0  0  0  0  0
  1 10  1  0  0  0  0
  1 11  1  0  0  0  0
  1 22  1  0  0  0  0
  1 33  1  0  0  0  0
  2 16  1  0  0  0  0
  2 17  1  0  0  0  0
  2 19  1  0  0  0  0
  2 38  1  0  0  0  0
  3  4  1  0  0  0  0
  3  9  2  0  0  0  0
  3 12  1  0  0  0  0
  4  5  3  0  0  0  0
  5  6  1  0  0  0  0
  6 28  1  0  0  0  0
  6 31  1  0  0  0  0
  6 32  1  0  0  0  0
  7 23  2  0  0  0  0
  7 27  1  0  0  0  0
  7 28  1  0  0  0  0
  8 10  1  0  0  0  0
  8 12  2  0  0  0  0
  8 14  1  0  0  0  0
  9 13  1  0  0  0  0
  9 35  1  0  0  0  0
 10 36  1  0  0  0  0
 10 37  1  0  0  0  0
 11 15  1  0  0  0  0
 11 39  1  0  0  0  0
 11 40  1  0  0  0  0
 12 41  1  0  0  0  0
 13 14  2  0  0  0  0
 13 30  1  0  0  0  0
 14 29  1  0  0  0  0
 15 16  1  0  0  0  0
 15 42  1  0  0  0  0
 15 43  1  0  0  0  0
 16 21  1  0  0  0  0
 16 44  1  0  0  0  0
 17 18  1  0  0  0  0
 17 45  1  0  0  0  0
 17 46  1  0  0  0  0
 18 47  1  0  0  0  0
 18 48  1  0  0  0  0
 18 49  1  0  0  0  0
 19 20  1  0  0  0  0
 19 50  1  0  0  0  0
 19 51  1  0  0  0  0
 20 52  1  0  0  0  0
 20 53  1  0  0  0  0
 20 54  1  0  0  0  0
 21 22  1  0  0  0  0
 21 55  1  0  0  0  0
 21 56  1  0  0  0  0
 22 57  1  0  0  0  0
 22 58  1  0  0  0  0
 23 24  1  0  0  0  0
 23 59  1  0  0  0  0
 24 25  2  0  0  0  0
 24 60  1  0  0  0  0
 25 26  1  0  0  0  0
 25 61  1  0  0  0  0
 26 27  2  0  0  0  0
 26 62  1  0  0  0  0
 27 63  1  0  0  0  0
 29 34  1  0  0  0  0
M  END
> <ConfScore>
-0.48323

$$$$
4agp


 63 65  0  0  0  0  0  0  0  0999 V2000
   90.4980   98.3810  -44.6910 N   0  3  0  1  0  4  0  0  0  0  0  0
   92.0484  102.3740  -44.2389 N   0  3  0  1  0  4  0  0  0  0  0  0
   91.0477   93.5495  -45.0827 C   0  0  0  1  0  3  0  0  0  0  0  0
   91.1130   92.3938  -45.9291 C   0  0  0  1  0  2  0  0  0  0  0  0
   91.1485   91.4585  -46.6727 C   0  0  0  1  0  2  0  0  0  0  0  0
   91.2204   90.2618  -47.5348 C   0  0  0  1  0  4  0  0  0  0  0  0
   90.7614   89.5645  -49.8012 C   0  0  0  1  0  3  0  0  0  0  0  0
   90.4948   95.8988  -44.7838 C   0  0  0  1  0  3  0  0  0  0  0  0
   91.4685   93.4573  -43.7498 C   0  0  0  1  0  3  0  0  0  0  0  0
   89.9050   97.1660  -45.3350 C   0  0  0  1  0  4  0  0  0  0  0  0
   89.5430   99.5450  -44.7170 C   0  0  0  1  0  4  0  0  0  0  0  0
   90.5627   94.7613  -45.5982 C   0  0  0  1  0  3  0  0  0  0  0  0
   91.3956   94.6098  -42.9505 C   0  0  0  1  0  3  0  0  0  0  0  0
   90.9131   95.8428  -43.4281 C   0  0  0  1  0  3  0  0  0  0  0  0
   90.1750  100.7310  -44.0050 C   0  0  0  1  0  4  0  0  0  0  0  0
   91.4300  101.0810  -44.8020 C   0  0  0  1  0  4  0  0  0  0  0  0
   93.2591  102.8328  -45.0612 C   0  0  0  1  0  4  0  0  0  0  0  0
   93.7972  104.1051  -44.4346 C   0  0  0  1  0  4  0  0  0  0  0  0
   92.4430  102.3185  -42.7690 C   0  0  0  1  0  4  0  0  0  0  0  0
   91.2654  102.0998  -41.8289 C   0  0  0  1  0  4  0  0  0  0  0  0
   92.4510   99.9400  -44.6950 C   0  0  0  1  0  4  0  0  0  0  0  0
   91.8210   98.7070  -45.3220 C   0  0  0  1  0  4  0  0  0  0  0  0
   90.2795   89.9607  -51.0519 C   0  0  0  1  0  3  0  0  0  0  0  0
   90.2323   89.0541  -52.1134 C   0  0  0  1  0  3  0  0  0  0  0  0
   90.6669   87.7431  -51.9287 C   0  0  0  1  0  3  0  0  0  0  0  0
   91.1443   87.3379  -50.6808 C   0  0  0  1  0  3  0  0  0  0  0  0
   91.1942   88.2496  -49.6203 C   0  0  0  1  0  3  0  0  0  0  0  0
   90.7486   90.5572  -48.8518 O   0  0  0  1  0  2  0  0  0  0  0  0
   90.8499   96.9370  -42.6230 O   0  0  0  1  0  2  0  0  0  0  0  0
   92.0414   94.4869  -40.9337 I   0  0  0  1  0  1  0  0  0  0  0  0
   90.5997   89.4649  -47.0990 H   0  0  0  1  0  1  0  0  0  0  0  0
   92.2650   89.9209  -47.5935 H   0  0  0  1  0  1  0  0  0  0  0  0
   90.6654   98.1804  -43.7172 H   0  0  0  1  0  1  0  0  0  0  0  0
   91.1007   97.7077  -43.1181 H   0  0  0  1  0  1  0  0  0  0  0  0
   91.8400   92.5230  -43.3467 H   0  0  0  1  0  1  0  0  0  0  0  0
   90.0974   97.2069  -46.4175 H   0  0  0  1  0  1  0  0  0  0  0  0
   88.8209   97.1614  -45.1551 H   0  0  0  1  0  1  0  0  0  0  0  0
   91.3382  103.0864  -44.3227 H   0  0  0  1  0  1  0  0  0  0  0  0
   88.6101   99.2656  -44.2072 H   0  0  0  1  0  1  0  0  0  0  0  0
   89.3242   99.8170  -45.7597 H   0  0  0  1  0  1  0  0  0  0  0  0
   90.2395   94.8172  -46.6307 H   0  0  0  1  0  1  0  0  0  0  0  0
   90.4414  100.4592  -42.9725 H   0  0  0  1  0  1  0  0  0  0  0  0
   89.4798  101.5841  -43.9926 H   0  0  0  1  0  1  0  0  0  0  0  0
   91.1613  101.2320  -45.8577 H   0  0  0  1  0  1  0  0  0  0  0  0
   92.9527  103.0291  -46.0994 H   0  0  0  1  0  1  0  0  0  0  0  0
   94.0355  102.0541  -45.0494 H   0  0  0  1  0  1  0  0  0  0  0  0
   94.6800  104.4467  -44.9957 H   0  0  0  1  0  1  0  0  0  0  0  0
   94.0815  103.9074  -43.3898 H   0  0  0  1  0  1  0  0  0  0  0  0
   93.0209  104.8854  -44.4628 H   0  0  0  1  0  1  0  0  0  0  0  0
   92.9282  103.2684  -42.5030 H   0  0  0  1  0  1  0  0  0  0  0  0
   93.1548  101.4920  -42.6308 H   0  0  0  1  0  1  0  0  0  0  0  0
   90.7739  101.1462  -42.0725 H   0  0  0  1  0  1  0  0  0  0  0  0
   90.5464  102.9243  -41.9451 H   0  0  0  1  0  1  0  0  0  0  0  0
   91.6264  102.0733  -40.7896 H   0  0  0  1  0  1  0  0  0  0  0  0
   92.6881   99.7451  -43.6375 H   0  0  0  1  0  1  0  0  0  0  0  0
   93.3710  100.2073  -45.2341 H   0  0  0  1  0  1  0  0  0  0  0  0
   91.6686   98.8909  -46.3957 H   0  0  0  1  0  1  0  0  0  0  0  0
   92.5006   97.8518  -45.1886 H   0  0  0  1  0  1  0  0  0  0  0  0
   89.9404   90.9798  -51.1997 H   0  0  0  1  0  1  0  0  0  0  0  0
   89.8563   89.3695  -53.0802 H   0  0  0  1  0  1  0  0  0  0  0  0
   90.6338   87.0394  -52.7529 H   0  0  0  1  0  1  0  0  0  0  0  0
   91.4756   86.3159  -50.5325 H   0  0  0  1  0  1  0  0  0  0  0  0
   91.5710   87.9337  -48.6537 H   0  0  0  1  0  1  0  0  0  0  0  0
  1 10  1  0  0  0  0
  1 11  1  0  0  0  0
  1 22  1  0  0  0  0
  1 33  1  0  0  0  0
  2 16  1  0  0  0  0
  2 17  1  0  0  0  0
  2 19  1  0  0  0  0
  2 38  1  0  0  0  0
  3  4  1  0  0  0  0
  3  9  2  0  0  0  0
  3 12  1  0  0  0  0
  4  5  3  0  0  0  0
  5  6  1  0  0  0  0
  6 28  1  0  0  0  0
  6 31  1  0  0  0  0
  6 32  1  0  0  0  0
  7 23  2  0  0  0  0
  7 27  1  0  0  0  0
  7 28  1  0  0  0  0
  8 10  1  0  0  0  0
  8 12  2  0  0  0  0
  8 14  1  0  0  0  0
  9 13  1  0  0  0  0
  9 35  1  0  0  0  0
 10 36  1  0  0  0  0
 10 37  1  0  0  0  0
 11 15  1  0  0  0  0
 11 39  1  0  0  0  0
 11 40  1  0  0  0  0
 12 41  1  0  0  0  0
 13 14  2  0  0  0  0
 13 30  1  0  0  0  0
 14 29  1  0  0  0  0
 15 16  1  0  0  0  0
 15 42  1  0  0  0  0
 15 43  1  0  0  0  0
 16 21  1  0  0  0  0
 16 44  1  0  0  0  0
 17 18  1  0  0  0  0
 17 45  1  0  0  0  0
 17 46  1  0  0  0  0
 18 47  1  0  0  0  0
 18 48  1  0  0  0  0
 18 49  1  0  0  0  0
 19 20  1  0  0  0  0
 19 50  1  0  0  0  0
 19 51  1  0  0  0  0
 20 52  1  0  0  0  0
 20 53  1  0  0  0  0
 20 54  1  0  0  0  0
 21 22  1  0  0  0  0
 21 55  1  0  0  0  0
 21 56  1  0  0  0  0
 22 57  1  0  0  0  0
 22 58  1  0  0  0  0
 23 24  1  0  0  0  0
 23 59  1  0  0  0  0
 24 25  2  0  0  0  0
 24 60  1  0  0  0  0
 25 26  1  0  0  0  0
 25 61  1  0  0  0  0
 26 27  2  0  0  0  0
 26 62  1  0  0  0  0
 27 63  1  0  0  0  0
 29 34  1  0  0  0  0
M  END
> <ConfScore>
-0.482664

$$$$
4agp


 63 65  0  0  0  0  0  0  0  0999 V2000
    5.4320    2.2550   28.3390 N   0  3  0  1  0  4  0  0  0  0  0  0
    4.8056   -1.3098   27.7638 N   0  3  0  1  0  4  0  0  0  0  0  0
    8.5748    5.9961   27.9781 C   0  0  0  1  0  3  0  0  0  0  0  0
    9.9176    6.4646   28.1623 C   0  0  0  1  0  2  0  0  0  0  0  0
   11.0460    6.8142   28.3447 C   0  0  0  1  0  2  0  0  0  0  0  0
   12.4262    7.3065   28.5273 C   0  0  0  1  0  4  0  0  0  0  0  0
   14.4890    6.7106   29.6333 C   0  0  0  1  0  3  0  0  0  0  0  0
    6.8799    4.3500   28.3599 C   0  0  0  1  0  3  0  0  0  0  0  0
    7.6878    6.7185   27.2108 C   0  0  0  1  0  3  0  0  0  0  0  0
    6.4640    3.0610   28.9950 C   0  0  0  1  0  4  0  0  0  0  0  0
    6.0520    1.4770   27.2550 C   0  0  0  1  0  4  0  0  0  0  0  0
    8.1652    4.8245   28.5654 C   0  0  0  1  0  3  0  0  0  0  0  0
    6.3876    6.2645   27.0259 C   0  0  0  1  0  3  0  0  0  0  0  0
    5.9794    5.0810   27.6033 C   0  0  0  1  0  3  0  0  0  0  0  0
    4.9600    0.8100   26.4490 C   0  0  0  1  0  4  0  0  0  0  0  0
    4.0370   -0.0500   27.3240 C   0  0  0  1  0  4  0  0  0  0  0  0
    6.0060   -0.9644   28.6539 C   0  0  0  1  0  4  0  0  0  0  0  0
    6.6405   -2.2640   29.1115 C   0  0  0  1  0  4  0  0  0  0  0  0
    5.2755   -2.2124   26.6307 C   0  0  0  1  0  4  0  0  0  0  0  0
    6.1891   -1.5139   25.6330 C   0  0  0  1  0  4  0  0  0  0  0  0
    3.5580    0.6920   28.5700 C   0  0  0  1  0  4  0  0  0  0  0  0
    4.7240    1.3610   29.2750 C   0  0  0  1  0  4  0  0  0  0  0  0
   15.1207    5.7863   30.4699 C   0  0  0  1  0  3  0  0  0  0  0  0
   16.4559    5.9620   30.8408 C   0  0  0  1  0  3  0  0  0  0  0  0
   17.1674    7.0665   30.3765 C   0  0  0  1  0  3  0  0  0  0  0  0
   16.5419    7.9975   29.5451 C   0  0  0  1  0  3  0  0  0  0  0  0
   15.2053    7.8165   29.1719 C   0  0  0  1  0  3  0  0  0  0  0  0
   13.1775    6.4133   29.3532 O   0  0  0  1  0  2  0  0  0  0  0  0
    4.7059    4.6360   27.4315 O   0  0  0  1  0  2  0  0  0  0  0  0
    5.0284    7.3945   25.8531 I   0  0  0  1  0  1  0  0  0  0  0  0
   12.3959    8.2984   29.0022 H   0  0  0  1  0  1  0  0  0  0  0  0
   12.9144    7.3864   27.5445 H   0  0  0  1  0  1  0  0  0  0  0  0
    4.7369    2.8837   27.9672 H   0  0  0  1  0  1  0  0  0  0  0  0
    4.1510    4.9976   28.1122 H   0  0  0  1  0  1  0  0  0  0  0  0
    8.0056    7.6456   26.7492 H   0  0  0  1  0  1  0  0  0  0  0  0
    7.3642    2.4333   29.0731 H   0  0  0  1  0  1  0  0  0  0  0  0
    6.0955    3.3008   30.0022 H   0  0  0  1  0  1  0  0  0  0  0  0
    4.1624   -1.8530   28.3206 H   0  0  0  1  0  1  0  0  0  0  0  0
    6.7157    0.7119   27.6822 H   0  0  0  1  0  1  0  0  0  0  0  0
    6.6341    2.1467   26.6056 H   0  0  0  1  0  1  0  0  0  0  0  0
    8.8509    4.2681   29.1931 H   0  0  0  1  0  1  0  0  0  0  0  0
    5.4248    0.1675   25.6861 H   0  0  0  1  0  1  0  0  0  0  0  0
    4.3575    1.5882   25.9564 H   0  0  0  1  0  1  0  0  0  0  0  0
    3.1599   -0.3440   26.7292 H   0  0  0  1  0  1  0  0  0  0  0  0
    5.6692   -0.3862   29.5272 H   0  0  0  1  0  1  0  0  0  0  0  0
    6.7367   -0.3735   28.0830 H   0  0  0  1  0  1  0  0  0  0  0  0
    6.9559   -2.8482   28.2340 H   0  0  0  1  0  1  0  0  0  0  0  0
    5.9086   -2.8443   29.6938 H   0  0  0  1  0  1  0  0  0  0  0  0
    7.5178   -2.0436   29.7392 H   0  0  0  1  0  1  0  0  0  0  0  0
    4.3918   -2.5831   26.0921 H   0  0  0  1  0  1  0  0  0  0  0  0
    5.8222   -3.0613   27.0659 H   0  0  0  1  0  1  0  0  0  0  0  0
    6.4873   -2.2252   24.8485 H   0  0  0  1  0  1  0  0  0  0  0  0
    7.0848   -1.1440   26.1537 H   0  0  0  1  0  1  0  0  0  0  0  0
    5.6546   -0.6664   25.1779 H   0  0  0  1  0  1  0  0  0  0  0  0
    3.0827   -0.0249   29.2576 H   0  0  0  1  0  1  0  0  0  0  0  0
    2.8266    1.4580   28.2753 H   0  0  0  1  0  1  0  0  0  0  0  0
    4.3473    1.9483   30.1253 H   0  0  0  1  0  1  0  0  0  0  0  0
    5.4199    0.5906   29.6402 H   0  0  0  1  0  1  0  0  0  0  0  0
   14.5706    4.9256   30.8333 H   0  0  0  1  0  1  0  0  0  0  0  0
   16.9381    5.2406   31.4908 H   0  0  0  1  0  1  0  0  0  0  0  0
   18.2048    7.2022   30.6611 H   0  0  0  1  0  1  0  0  0  0  0  0
   17.0913    8.8622   29.1890 H   0  0  0  1  0  1  0  0  0  0  0  0
   14.7238    8.5382   28.5213 H   0  0  0  1  0  1  0  0  0  0  0  0
  1 10  1  0  0  0  0
  1 11  1  0  0  0  0
  1 22  1  0  0  0  0
  1 33  1  0  0  0  0
  2 16  1  0  0  0  0
  2 17  1  0  0  0  0
  2 19  1  0  0  0  0
  2 38  1  0  0  0  0
  3  4  1  0  0  0  0
  3  9  2  0  0  0  0
  3 12  1  0  0  0  0
  4  5  3  0  0  0  0
  5  6  1  0  0  0  0
  6 28  1  0  0  0  0
  6 31  1  0  0  0  0
  6 32  1  0  0  0  0
  7 23  2  0  0  0  0
  7 27  1  0  0  0  0
  7 28  1  0  0  0  0
  8 10  1  0  0  0  0
  8 12  2  0  0  0  0
  8 14  1  0  0  0  0
  9 13  1  0  0  0  0
  9 35  1  0  0  0  0
 10 36  1  0  0  0  0
 10 37  1  0  0  0  0
 11 15  1  0  0  0  0
 11 39  1  0  0  0  0
 11 40  1  0  0  0  0
 12 41  1  0  0  0  0
 13 14  2  0  0  0  0
 13 30  1  0  0  0  0
 14 29  1  0  0  0  0
 15 16  1  0  0  0  0
 15 42  1  0  0  0  0
 15 43  1  0  0  0  0
 16 21  1  0  0  0  0
 16 44  1  0  0  0  0
 17 18  1  0  0  0  0
 17 45  1  0  0  0  0
 17 46  1  0  0  0  0
 18 47  1  0  0  0  0
 18 48  1  0  0  0  0
 18 49  1  0  0  0  0
 19 20  1  0  0  0  0
 19 50  1  0  0  0  0
 19 51  1  0  0  0  0
 20 52  1  0  0  0  0
 20 53  1  0  0  0  0
 20 54  1  0  0  0  0
 21 22  1  0  0  0  0
 21 55  1  0  0  0  0
 21 56  1  0  0  0  0
 22 57  1  0  0  0  0
 22 58  1  0  0  0  0
 23 24  1  0  0  0  0
 23 59  1  0  0  0  0
 24 25  2  0  0  0  0
 24 60  1  0  0  0  0
 25 26  1  0  0  0  0
 25 61  1  0  0  0  0
 26 27  2  0  0  0  0
 26 62  1  0  0  0  0
 27 63  1  0  0  0  0
 29 34  1  0  0  0  0
M  END
> <ConfScore>
-0.474319

$$$$
4agp


 63 65  0  0  0  0  0  0  0  0999 V2000
  124.0460  107.7170  -44.7230 N   0  3  0  1  0  4  0  0  0  0  0  0
  125.5080  111.7370  -44.1130 N   0  3  0  1  0  4  0  0  0  0  0  0
  123.7861  106.2889  -49.2209 C   0  0  0  1  0  3  0  0  0  0  0  0
  124.5026  105.4811  -50.1646 C   0  0  0  1  0  2  0  0  0  0  0  0
  125.1216  104.7834  -50.9122 C   0  0  0  1  0  2  0  0  0  0  0  0
  125.8541  103.9578  -51.8932 C   0  0  0  1  0  4  0  0  0  0  0  0
  127.4520  102.1491  -51.9869 C   0  0  0  1  0  3  0  0  0  0  0  0
  123.2673  106.8157  -46.9080 C   0  0  0  1  0  3  0  0  0  0  0  0
  122.9058  107.2814  -49.6627 C   0  0  0  1  0  3  0  0  0  0  0  0
  123.4970  106.5410  -45.4510 C   0  0  0  1  0  4  0  0  0  0  0  0
  123.0770  108.8710  -44.7550 C   0  0  0  1  0  4  0  0  0  0  0  0
  123.9661  106.0488  -47.8461 C   0  0  0  1  0  3  0  0  0  0  0  0
  122.2209  108.0305  -48.6980 C   0  0  0  1  0  3  0  0  0  0  0  0
  122.3696  107.8365  -47.3169 C   0  0  0  1  0  3  0  0  0  0  0  0
  123.6820  109.9950  -43.9370 C   0  0  0  1  0  4  0  0  0  0  0  0
  124.9420  110.4210  -44.6780 C   0  0  0  1  0  4  0  0  0  0  0  0
  126.7493  112.2022  -44.8845 C   0  0  0  1  0  4  0  0  0  0  0  0
  126.3539  112.3979  -46.3358 C   0  0  0  1  0  4  0  0  0  0  0  0
  125.8303  111.7191  -42.6247 C   0  0  0  1  0  4  0  0  0  0  0  0
  124.6445  111.3403  -41.7480 C   0  0  0  1  0  4  0  0  0  0  0  0
  125.9830  109.2940  -44.5690 C   0  0  0  1  0  4  0  0  0  0  0  0
  125.3930  108.0860  -45.2720 C   0  0  0  1  0  4  0  0  0  0  0  0
  127.2804  102.2949  -53.3663 C   0  0  0  1  0  3  0  0  0  0  0  0
  127.9861  101.4843  -54.2584 C   0  0  0  1  0  3  0  0  0  0  0  0
  128.8683  100.5205  -53.7742 C   0  0  0  1  0  3  0  0  0  0  0  0
  129.0411  100.3646  -52.3975 C   0  0  0  1  0  3  0  0  0  0  0  0
  128.3357  101.1810  -51.5063 C   0  0  0  1  0  3  0  0  0  0  0  0
  126.6946  103.0099  -51.2304 O   0  0  0  1  0  2  0  0  0  0  0  0
  121.6916  108.5655  -46.3905 O   0  0  0  1  0  2  0  0  0  0  0  0
  120.8983  109.5485  -49.3659 I   0  0  0  1  0  1  0  0  0  0  0  0
  126.4743  104.6117  -52.5240 H   0  0  0  1  0  1  0  0  0  0  0  0
  125.1309  103.4197  -52.5244 H   0  0  0  1  0  1  0  0  0  0  0  0
  124.1710  107.4530  -43.7580 H   0  0  0  1  0  1  0  0  0  0  0  0
  121.1395  109.2002  -46.8312 H   0  0  0  1  0  1  0  0  0  0  0  0
  122.7569  107.4654  -50.7198 H   0  0  0  1  0  1  0  0  0  0  0  0
  124.2081  105.7067  -45.3577 H   0  0  0  1  0  1  0  0  0  0  0  0
  122.5393  106.2588  -44.9918 H   0  0  0  1  0  1  0  0  0  0  0  0
  124.7899  112.4336  -44.2467 H   0  0  0  1  0  1  0  0  0  0  0  0
  122.1150  108.5650  -44.3200 H   0  0  0  1  0  1  0  0  0  0  0  0
  122.9220  109.2020  -45.7920 H   0  0  0  1  0  1  0  0  0  0  0  0
  124.6441  105.2715  -47.5147 H   0  0  0  1  0  1  0  0  0  0  0  0
  123.9340  109.6410  -42.9260 H   0  0  0  1  0  1  0  0  0  0  0  0
  122.9770  110.8370  -43.8650 H   0  0  0  1  0  1  0  0  0  0  0  0
  124.6940  110.5770  -45.7380 H   0  0  0  1  0  1  0  0  0  0  0  0
  127.5404  111.4410  -44.8130 H   0  0  0  1  0  1  0  0  0  0  0  0
  127.1152  113.1511  -44.4665 H   0  0  0  1  0  1  0  0  0  0  0  0
  125.5477  113.1441  -46.4000 H   0  0  0  1  0  1  0  0  0  0  0  0
  126.0017  111.4418  -46.7521 H   0  0  0  1  0  1  0  0  0  0  0  0
  127.2251  112.7500  -46.9098 H   0  0  0  1  0  1  0  0  0  0  0  0
  126.1732  112.7214  -42.3310 H   0  0  0  1  0  1  0  0  0  0  0  0
  126.6357  110.9909  -42.4517 H   0  0  0  1  0  1  0  0  0  0  0  0
  124.9524  111.3473  -40.6918 H   0  0  0  1  0  1  0  0  0  0  0  0
  124.2934  110.3344  -42.0220 H   0  0  0  1  0  1  0  0  0  0  0  0
  123.8306  112.0655  -41.8992 H   0  0  0  1  0  1  0  0  0  0  0  0
  126.1780  109.0590  -43.5110 H   0  0  0  1  0  1  0  0  0  0  0  0
  126.9210  109.5950  -45.0570 H   0  0  0  1  0  1  0  0  0  0  0  0
  125.2890  108.3140  -46.3430 H   0  0  0  1  0  1  0  0  0  0  0  0
  126.0750  107.2320  -45.1430 H   0  0  0  1  0  1  0  0  0  0  0  0
  126.5949  103.0436  -53.7470 H   0  0  0  1  0  1  0  0  0  0  0  0
  127.8465  101.6035  -55.3270 H   0  0  0  1  0  1  0  0  0  0  0  0
  129.4191   99.8929  -54.4658 H   0  0  0  1  0  1  0  0  0  0  0  0
  129.7212   99.6097  -52.0182 H   0  0  0  1  0  1  0  0  0  0  0  0
  128.4763  101.0616  -50.4376 H   0  0  0  1  0  1  0  0  0  0  0  0
  1 10  1  0  0  0  0
  1 11  1  0  0  0  0
  1 22  1  0  0  0  0
  1 33  1  0  0  0  0
  2 16  1  0  0  0  0
  2 17  1  0  0  0  0
  2 19  1  0  0  0  0
  2 38  1  0  0  0  0
  3  4  1  0  0  0  0
  3  9  2  0  0  0  0
  3 12  1  0  0  0  0
  4  5  3  0  0  0  0
  5  6  1  0  0  0  0
  6 28  1  0  0  0  0
  6 31  1  0  0  0  0
  6 32  1  0  0  0  0
  7 23  2  0  0  0  0
  7 27  1  0  0  0  0
  7 28  1  0  0  0  0
  8 10  1  0  0  0  0
  8 12  2  0  0  0  0
  8 14  1  0  0  0  0
  9 13  1  0  0  0  0
  9 35  1  0  0  0  0
 10 36  1  0  0  0  0
 10 37  1  0  0  0  0
 11 15  1  0  0  0  0
 11 39  1  0  0  0  0
 11 40  1  0  0  0  0
 12 41  1  0  0  0  0
 13 14  2  0  0  0  0
 13 30  1  0  0  0  0
 14 29  1  0  0  0  0
 15 16  1  0  0  0  0
 15 42  1  0  0  0  0
 15 43  1  0  0  0  0
 16 21  1  0  0  0  0
 16 44  1  0  0  0  0
 17 18  1  0  0  0  0
 17 45  1  0  0  0  0
 17 46  1  0  0  0  0
 18 47  1  0  0  0  0
 18 48  1  0  0  0  0
 18 49  1  0  0  0  0
 19 20  1  0  0  0  0
 19 50  1  0  0  0  0
 19 51  1  0  0  0  0
 20 52  1  0  0  0  0
 20 53  1  0  0  0  0
 20 54  1  0  0  0  0
 21 22  1  0  0  0  0
 21 55  1  0  0  0  0
 21 56  1  0  0  0  0
 22 57  1  0  0  0  0
 22 58  1  0  0  0  0
 23 24  1  0  0  0  0
 23 59  1  0  0  0  0
 24 25  2  0  0  0  0
 24 60  1  0  0  0  0
 25 26  1  0  0  0  0
 25 61  1  0  0  0  0
 26 27  2  0  0  0  0
 26 62  1  0  0  0  0
 27 63  1  0  0  0  0
 29 34  1  0  0  0  0
M  END
> <ConfScore>
-0.469509

$$$$
4agp


 63 65  0  0  0  0  0  0  0  0999 V2000
  124.0460  107.7170  -44.7230 N   0  3  0  1  0  4  0  0  0  0  0  0
  125.5080  111.7370  -44.1130 N   0  3  0  1  0  4  0  0  0  0  0  0
  123.7861  106.2889  -49.2209 C   0  0  0  1  0  3  0  0  0  0  0  0
  124.5026  105.4811  -50.1646 C   0  0  0  1  0  2  0  0  0  0  0  0
  125.1216  104.7834  -50.9122 C   0  0  0  1  0  2  0  0  0  0  0  0
  125.8541  103.9578  -51.8932 C   0  0  0  1  0  4  0  0  0  0  0  0
  127.4520  102.1491  -51.9869 C   0  0  0  1  0  3  0  0  0  0  0  0
  123.2673  106.8157  -46.9080 C   0  0  0  1  0  3  0  0  0  0  0  0
  122.9058  107.2814  -49.6627 C   0  0  0  1  0  3  0  0  0  0  0  0
  123.4970  106.5410  -45.4510 C   0  0  0  1  0  4  0  0  0  0  0  0
  123.0770  108.8710  -44.7550 C   0  0  0  1  0  4  0  0  0  0  0  0
  123.9661  106.0488  -47.8461 C   0  0  0  1  0  3  0  0  0  0  0  0
  122.2209  108.0305  -48.6980 C   0  0  0  1  0  3  0  0  0  0  0  0
  122.3696  107.8365  -47.3169 C   0  0  0  1  0  3  0  0  0  0  0  0
  123.6820  109.9950  -43.9370 C   0  0  0  1  0  4  0  0  0  0  0  0
  124.9420  110.4210  -44.6780 C   0  0  0  1  0  4  0  0  0  0  0  0
  126.7493  112.2022  -44.8845 C   0  0  0  1  0  4  0  0  0  0  0  0
  126.3539  112.3979  -46.3358 C   0  0  0  1  0  4  0  0  0  0  0  0
  125.8303  111.7191  -42.6247 C   0  0  0  1  0  4  0  0  0  0  0  0
  124.6445  111.3403  -41.7480 C   0  0  0  1  0  4  0  0  0  0  0  0
  125.9830  109.2940  -44.5690 C   0  0  0  1  0  4  0  0  0  0  0  0
  125.3930  108.0860  -45.2720 C   0  0  0  1  0  4  0  0  0  0  0  0
  128.2561  101.2842  -51.2394 C   0  0  0  1  0  3  0  0  0  0  0  0
  129.0814  100.3547  -51.8766 C   0  0  0  1  0  3  0  0  0  0  0  0
  129.1075  100.2861  -53.2681 C   0  0  0  1  0  3  0  0  0  0  0  0
  128.3115  101.1505  -54.0222 C   0  0  0  1  0  3  0  0  0  0  0  0
  127.4826  102.0779  -53.3808 C   0  0  0  1  0  3  0  0  0  0  0  0
  126.6946  103.0099  -51.2304 O   0  0  0  1  0  2  0  0  0  0  0  0
  121.6916  108.5655  -46.3905 O   0  0  0  1  0  2  0  0  0  0  0  0
  120.8983  109.5485  -49.3659 I   0  0  0  1  0  1  0  0  0  0  0  0
  126.4743  104.6117  -52.5240 H   0  0  0  1  0  1  0  0  0  0  0  0
  125.1309  103.4197  -52.5244 H   0  0  0  1  0  1  0  0  0  0  0  0
  124.1710  107.4530  -43.7580 H   0  0  0  1  0  1  0  0  0  0  0  0
  121.1395  109.2002  -46.8312 H   0  0  0  1  0  1  0  0  0  0  0  0
  122.7569  107.4654  -50.7198 H   0  0  0  1  0  1  0  0  0  0  0  0
  124.2081  105.7067  -45.3577 H   0  0  0  1  0  1  0  0  0  0  0  0
  122.5393  106.2588  -44.9918 H   0  0  0  1  0  1  0  0  0  0  0  0
  124.7899  112.4336  -44.2467 H   0  0  0  1  0  1  0  0  0  0  0  0
  122.1150  108.5650  -44.3200 H   0  0  0  1  0  1  0  0  0  0  0  0
  122.9220  109.2020  -45.7920 H   0  0  0  1  0  1  0  0  0  0  0  0
  124.6441  105.2715  -47.5147 H   0  0  0  1  0  1  0  0  0  0  0  0
  123.9340  109.6410  -42.9260 H   0  0  0  1  0  1  0  0  0  0  0  0
  122.9770  110.8370  -43.8650 H   0  0  0  1  0  1  0  0  0  0  0  0
  124.6940  110.5770  -45.7380 H   0  0  0  1  0  1  0  0  0  0  0  0
  127.5404  111.4410  -44.8130 H   0  0  0  1  0  1  0  0  0  0  0  0
  127.1152  113.1511  -44.4665 H   0  0  0  1  0  1  0  0  0  0  0  0
  125.5477  113.1441  -46.4000 H   0  0  0  1  0  1  0  0  0  0  0  0
  126.0017  111.4418  -46.7521 H   0  0  0  1  0  1  0  0  0  0  0  0
  127.2251  112.7500  -46.9098 H   0  0  0  1  0  1  0  0  0  0  0  0
  126.1732  112.7214  -42.3310 H   0  0  0  1  0  1  0  0  0  0  0  0
  126.6357  110.9909  -42.4517 H   0  0  0  1  0  1  0  0  0  0  0  0
  124.9524  111.3473  -40.6918 H   0  0  0  1  0  1  0  0  0  0  0  0
  124.2934  110.3344  -42.0220 H   0  0  0  1  0  1  0  0  0  0  0  0
  123.8306  112.0655  -41.8992 H   0  0  0  1  0  1  0  0  0  0  0  0
  126.1780  109.0590  -43.5110 H   0  0  0  1  0  1  0  0  0  0  0  0
  126.9210  109.5950  -45.0570 H   0  0  0  1  0  1  0  0  0  0  0  0
  125.2890  108.3140  -46.3430 H   0  0  0  1  0  1  0  0  0  0  0  0
  126.0750  107.2320  -45.1430 H   0  0  0  1  0  1  0  0  0  0  0  0
  128.2387  101.3345  -50.1566 H   0  0  0  1  0  1  0  0  0  0  0  0
  129.7027   99.6881  -51.2892 H   0  0  0  1  0  1  0  0  0  0  0  0
  129.7453   99.5628  -53.7637 H   0  0  0  1  0  1  0  0  0  0  0  0
  128.3361  101.1044  -55.1055 H   0  0  0  1  0  1  0  0  0  0  0  0
  126.8610  102.7440  -53.9690 H   0  0  0  1  0  1  0  0  0  0  0  0
  1 10  1  0  0  0  0
  1 11  1  0  0  0  0
  1 22  1  0  0  0  0
  1 33  1  0  0  0  0
  2 16  1  0  0  0  0
  2 17  1  0  0  0  0
  2 19  1  0  0  0  0
  2 38  1  0  0  0  0
  3  4  1  0  0  0  0
  3  9  2  0  0  0  0
  3 12  1  0  0  0  0
  4  5  3  0  0  0  0
  5  6  1  0  0  0  0
  6 28  1  0  0  0  0
  6 31  1  0  0  0  0
  6 32  1  0  0  0  0
  7 23  2  0  0  0  0
  7 27  1  0  0  0  0
  7 28  1  0  0  0  0
  8 10  1  0  0  0  0
  8 12  2  0  0  0  0
  8 14  1  0  0  0  0
  9 13  1  0  0  0  0
  9 35  1  0  0  0  0
 10 36  1  0  0  0  0
 10 37  1  0  0  0  0
 11 15  1  0  0  0  0
 11 39  1  0  0  0  0
 11 40  1  0  0  0  0
 12 41  1  0  0  0  0
 13 14  2  0  0  0  0
 13 30  1  0  0  0  0
 14 29  1  0  0  0  0
 15 16  1  0  0  0  0
 15 42  1  0  0  0  0
 15 43  1  0  0  0  0
 16 21  1  0  0  0  0
 16 44  1  0  0  0  0
 17 18  1  0  0  0  0
 17 45  1  0  0  0  0
 17 46  1  0  0  0  0
 18 47  1  0  0  0  0
 18 48  1  0  0  0  0
 18 49  1  0  0  0  0
 19 20  1  0  0  0  0
 19 50  1  0  0  0  0
 19 51  1  0  0  0  0
 20 52  1  0  0  0  0
 20 53  1  0  0  0  0
 20 54  1  0  0  0  0
 21 22  1  0  0  0  0
 21 55  1  0  0  0  0
 21 56  1  0  0  0  0
 22 57  1  0  0  0  0
 22 58  1  0  0  0  0
 23 24  1  0  0  0  0
 23 59  1  0  0  0  0
 24 25  2  0  0  0  0
 24 60  1  0  0  0  0
 25 26  1  0  0  0  0
 25 61  1  0  0  0  0
 26 27  2  0  0  0  0
 26 62  1  0  0  0  0
 27 63  1  0  0  0  0
 29 34  1  0  0  0  0
M  END
> <ConfScore>
-0.469509

$$$$
4agp


 63 65  0  0  0  0  0  0  0  0999 V2000
   90.4980   98.3810  -44.6910 N   0  3  0  1  0  4  0  0  0  0  0  0
   92.0484  102.3740  -44.2389 N   0  3  0  1  0  4  0  0  0  0  0  0
   91.0040   93.5374  -45.0640 C   0  0  0  1  0  3  0  0  0  0  0  0
   91.0248   92.3681  -45.8938 C   0  0  0  1  0  2  0  0  0  0  0  0
   91.0223   91.4212  -46.6234 C   0  0  0  1  0  2  0  0  0  0  0  0
   91.0485   90.2106  -47.4686 C   0  0  0  1  0  4  0  0  0  0  0  0
   91.2131   91.3805  -49.5752 C   0  0  0  1  0  3  0  0  0  0  0  0
   90.4948   95.8988  -44.7838 C   0  0  0  1  0  3  0  0  0  0  0  0
   91.4677   93.4593  -43.7444 C   0  0  0  1  0  3  0  0  0  0  0  0
   89.9050   97.1660  -45.3350 C   0  0  0  1  0  4  0  0  0  0  0  0
   89.5430   99.5450  -44.7170 C   0  0  0  1  0  4  0  0  0  0  0  0
   90.5195   94.7482  -45.5821 C   0  0  0  1  0  3  0  0  0  0  0  0
   91.4378   94.6248  -42.9613 C   0  0  0  1  0  3  0  0  0  0  0  0
   90.9571   95.8573  -43.4420 C   0  0  0  1  0  3  0  0  0  0  0  0
   90.1750  100.7310  -44.0050 C   0  0  0  1  0  4  0  0  0  0  0  0
   91.4300  101.0810  -44.8020 C   0  0  0  1  0  4  0  0  0  0  0  0
   93.2823  102.8116  -45.0380 C   0  0  0  1  0  4  0  0  0  0  0  0
   92.8717  102.9619  -46.4905 C   0  0  0  1  0  4  0  0  0  0  0  0
   92.4086  102.3309  -42.7598 C   0  0  0  1  0  4  0  0  0  0  0  0
   91.2473  101.9299  -41.8604 C   0  0  0  1  0  4  0  0  0  0  0  0
   92.4510   99.9400  -44.6950 C   0  0  0  1  0  4  0  0  0  0  0  0
   91.8210   98.7070  -45.3220 C   0  0  0  1  0  4  0  0  0  0  0  0
   92.3602   91.9234  -48.9899 C   0  0  0  1  0  3  0  0  0  0  0  0
   93.1460   92.8425  -49.6891 C   0  0  0  1  0  3  0  0  0  0  0  0
   92.7869   93.2251  -50.9799 C   0  0  0  1  0  3  0  0  0  0  0  0
   91.6392   92.6917  -51.5695 C   0  0  0  1  0  3  0  0  0  0  0  0
   90.8562   91.7679  -50.8681 C   0  0  0  1  0  3  0  0  0  0  0  0
   90.5373   90.4928  -48.7737 O   0  0  0  1  0  2  0  0  0  0  0  0
   90.9363   96.9644  -42.6525 O   0  0  0  1  0  2  0  0  0  0  0  0
   92.1485   94.5231  -40.9652 I   0  0  0  1  0  1  0  0  0  0  0  0
   90.4314   89.4296  -47.0000 H   0  0  0  1  0  1  0  0  0  0  0  0
   92.0856   89.8535  -47.5564 H   0  0  0  1  0  1  0  0  0  0  0  0
   90.6654   98.1804  -43.7172 H   0  0  0  1  0  1  0  0  0  0  0  0
   91.1813   97.7237  -43.1676 H   0  0  0  1  0  1  0  0  0  0  0  0
   91.8391   92.5258  -43.3392 H   0  0  0  1  0  1  0  0  0  0  0  0
   90.0974   97.2069  -46.4175 H   0  0  0  1  0  1  0  0  0  0  0  0
   88.8209   97.1614  -45.1551 H   0  0  0  1  0  1  0  0  0  0  0  0
   91.3476  103.0924  -44.3468 H   0  0  0  1  0  1  0  0  0  0  0  0
   88.6101   99.2656  -44.2072 H   0  0  0  1  0  1  0  0  0  0  0  0
   89.3242   99.8170  -45.7597 H   0  0  0  1  0  1  0  0  0  0  0  0
   90.1628   94.7931  -46.6041 H   0  0  0  1  0  1  0  0  0  0  0  0
   90.4414  100.4592  -42.9725 H   0  0  0  1  0  1  0  0  0  0  0  0
   89.4798  101.5841  -43.9926 H   0  0  0  1  0  1  0  0  0  0  0  0
   91.1613  101.2320  -45.8577 H   0  0  0  1  0  1  0  0  0  0  0  0
   94.0726  102.0513  -44.9507 H   0  0  0  1  0  1  0  0  0  0  0  0
   93.6544  103.7726  -44.6544 H   0  0  0  1  0  1  0  0  0  0  0  0
   92.0662  103.7075  -46.5699 H   0  0  0  1  0  1  0  0  0  0  0  0
   92.5133  101.9938  -46.8723 H   0  0  0  1  0  1  0  0  0  0  0  0
   93.7373  103.2936  -47.0847 H   0  0  0  1  0  1  0  0  0  0  0  0
   92.7539  103.3296  -42.4566 H   0  0  0  1  0  1  0  0  0  0  0  0
   93.2217  101.6040  -42.6207 H   0  0  0  1  0  1  0  0  0  0  0  0
   91.5861  101.9034  -40.8141 H   0  0  0  1  0  1  0  0  0  0  0  0
   90.8836  100.9341  -42.1544 H   0  0  0  1  0  1  0  0  0  0  0  0
   90.4327  102.6624  -41.9654 H   0  0  0  1  0  1  0  0  0  0  0  0
   92.6881   99.7451  -43.6375 H   0  0  0  1  0  1  0  0  0  0  0  0
   93.3710  100.2073  -45.2341 H   0  0  0  1  0  1  0  0  0  0  0  0
   91.6686   98.8909  -46.3957 H   0  0  0  1  0  1  0  0  0  0  0  0
   92.5006   97.8518  -45.1886 H   0  0  0  1  0  1  0  0  0  0  0  0
   92.6431   91.6283  -47.9858 H   0  0  0  1  0  1  0  0  0  0  0  0
   94.0340   93.2595  -49.2273 H   0  0  0  1  0  1  0  0  0  0  0  0
   93.3978   93.9360  -51.5248 H   0  0  0  1  0  1  0  0  0  0  0  0
   91.3532   92.9941  -52.5711 H   0  0  0  1  0  1  0  0  0  0  0  0
   89.9685   91.3508  -51.3308 H   0  0  0  1  0  1  0  0  0  0  0  0
  1 10  1  0  0  0  0
  1 11  1  0  0  0  0
  1 22  1  0  0  0  0
  1 33  1  0  0  0  0
  2 16  1  0  0  0  0
  2 17  1  0  0  0  0
  2 19  1  0  0  0  0
  2 38  1  0  0  0  0
  3  4  1  0  0  0  0
  3  9  2  0  0  0  0
  3 12  1  0  0  0  0
  4  5  3  0  0  0  0
  5  6  1  0  0  0  0
  6 28  1  0  0  0  0
  6 31  1  0  0  0  0
  6 32  1  0  0  0  0
  7 23  2  0  0  0  0
  7 27  1  0  0  0  0
  7 28  1  0  0  0  0
  8 10  1  0  0  0  0
  8 12  2  0  0  0  0
  8 14  1  0  0  0  0
  9 13  1  0  0  0  0
  9 35  1  0  0  0  0
 10 36  1  0  0  0  0
 10 37  1  0  0  0  0
 11 15  1  0  0  0  0
 11 39  1  0  0  0  0
 11 40  1  0  0  0  0
 12 41  1  0  0  0  0
 13 14  2  0  0  0  0
 13 30  1  0  0  0  0
 14 29  1  0  0  0  0
 15 16  1  0  0  0  0
 15 42  1  0  0  0  0
 15 43  1  0  0  0  0
 16 21  1  0  0  0  0
 16 44  1  0  0  0  0
 17 18  1  0  0  0  0
 17 45  1  0  0  0  0
 17 46  1  0  0  0  0
 18 47  1  0  0  0  0
 18 48  1  0  0  0  0
 18 49  1  0  0  0  0
 19 20  1  0  0  0  0
 19 50  1  0  0  0  0
 19 51  1  0  0  0  0
 20 52  1  0  0  0  0
 20 53  1  0  0  0  0
 20 54  1  0  0  0  0
 21 22  1  0  0  0  0
 21 55  1  0  0  0  0
 21 56  1  0  0  0  0
 22 57  1  0  0  0  0
 22 58  1  0  0  0  0
 23 24  1  0  0  0  0
 23 59  1  0  0  0  0
 24 25  2  0  0  0  0
 24 60  1  0  0  0  0
 25 26  1  0  0  0  0
 25 61  1  0  0  0  0
 26 27  2  0  0  0  0
 26 62  1  0  0  0  0
 27 63  1  0  0  0  0
 29 34  1  0  0  0  0
M  END
> <ConfScore>
-0.466916

$$$$
4agp


 63 65  0  0  0  0  0  0  0  0999 V2000
   90.4980   98.3810  -44.6910 N   0  3  0  1  0  4  0  0  0  0  0  0
   92.0484  102.3740  -44.2389 N   0  3  0  1  0  4  0  0  0  0  0  0
   91.0040   93.5374  -45.0640 C   0  0  0  1  0  3  0  0  0  0  0  0
   91.0248   92.3681  -45.8938 C   0  0  0  1  0  2  0  0  0  0  0  0
   91.0223   91.4212  -46.6234 C   0  0  0  1  0  2  0  0  0  0  0  0
   91.0485   90.2106  -47.4686 C   0  0  0  1  0  4  0  0  0  0  0  0
   91.2131   91.3805  -49.5752 C   0  0  0  1  0  3  0  0  0  0  0  0
   90.4948   95.8988  -44.7838 C   0  0  0  1  0  3  0  0  0  0  0  0
   91.4677   93.4593  -43.7444 C   0  0  0  1  0  3  0  0  0  0  0  0
   89.9050   97.1660  -45.3350 C   0  0  0  1  0  4  0  0  0  0  0  0
   89.5430   99.5450  -44.7170 C   0  0  0  1  0  4  0  0  0  0  0  0
   90.5195   94.7482  -45.5821 C   0  0  0  1  0  3  0  0  0  0  0  0
   91.4378   94.6248  -42.9613 C   0  0  0  1  0  3  0  0  0  0  0  0
   90.9571   95.8573  -43.4420 C   0  0  0  1  0  3  0  0  0  0  0  0
   90.1750  100.7310  -44.0050 C   0  0  0  1  0  4  0  0  0  0  0  0
   91.4300  101.0810  -44.8020 C   0  0  0  1  0  4  0  0  0  0  0  0
   93.2823  102.8116  -45.0380 C   0  0  0  1  0  4  0  0  0  0  0  0
   92.8717  102.9619  -46.4905 C   0  0  0  1  0  4  0  0  0  0  0  0
   92.4086  102.3309  -42.7598 C   0  0  0  1  0  4  0  0  0  0  0  0
   91.2473  101.9299  -41.8604 C   0  0  0  1  0  4  0  0  0  0  0  0
   92.4510   99.9400  -44.6950 C   0  0  0  1  0  4  0  0  0  0  0  0
   91.8210   98.7070  -45.3220 C   0  0  0  1  0  4  0  0  0  0  0  0
   90.6425   91.5622  -50.8381 C   0  0  0  1  0  3  0  0  0  0  0  0
   91.2243   92.4354  -51.7601 C   0  0  0  1  0  3  0  0  0  0  0  0
   92.3831   93.1321  -51.4233 C   0  0  0  1  0  3  0  0  0  0  0  0
   92.9625   92.9517  -50.1658 C   0  0  0  1  0  3  0  0  0  0  0  0
   92.3750   92.0793  -49.2427 C   0  0  0  1  0  3  0  0  0  0  0  0
   90.5373   90.4928  -48.7737 O   0  0  0  1  0  2  0  0  0  0  0  0
   90.9363   96.9644  -42.6525 O   0  0  0  1  0  2  0  0  0  0  0  0
   92.1485   94.5231  -40.9652 I   0  0  0  1  0  1  0  0  0  0  0  0
   90.4314   89.4296  -47.0000 H   0  0  0  1  0  1  0  0  0  0  0  0
   92.0856   89.8535  -47.5564 H   0  0  0  1  0  1  0  0  0  0  0  0
   90.6654   98.1804  -43.7172 H   0  0  0  1  0  1  0  0  0  0  0  0
   91.1813   97.7237  -43.1676 H   0  0  0  1  0  1  0  0  0  0  0  0
   91.8391   92.5258  -43.3392 H   0  0  0  1  0  1  0  0  0  0  0  0
   90.0974   97.2069  -46.4175 H   0  0  0  1  0  1  0  0  0  0  0  0
   88.8209   97.1614  -45.1551 H   0  0  0  1  0  1  0  0  0  0  0  0
   91.3476  103.0924  -44.3468 H   0  0  0  1  0  1  0  0  0  0  0  0
   88.6101   99.2656  -44.2072 H   0  0  0  1  0  1  0  0  0  0  0  0
   89.3242   99.8170  -45.7597 H   0  0  0  1  0  1  0  0  0  0  0  0
   90.1628   94.7931  -46.6041 H   0  0  0  1  0  1  0  0  0  0  0  0
   90.4414  100.4592  -42.9725 H   0  0  0  1  0  1  0  0  0  0  0  0
   89.4798  101.5841  -43.9926 H   0  0  0  1  0  1  0  0  0  0  0  0
   91.1613  101.2320  -45.8577 H   0  0  0  1  0  1  0  0  0  0  0  0
   94.0726  102.0513  -44.9507 H   0  0  0  1  0  1  0  0  0  0  0  0
   93.6544  103.7726  -44.6544 H   0  0  0  1  0  1  0  0  0  0  0  0
   92.0662  103.7075  -46.5699 H   0  0  0  1  0  1  0  0  0  0  0  0
   92.5133  101.9938  -46.8723 H   0  0  0  1  0  1  0  0  0  0  0  0
   93.7373  103.2936  -47.0847 H   0  0  0  1  0  1  0  0  0  0  0  0
   92.7539  103.3296  -42.4566 H   0  0  0  1  0  1  0  0  0  0  0  0
   93.2217  101.6040  -42.6207 H   0  0  0  1  0  1  0  0  0  0  0  0
   91.5861  101.9034  -40.8141 H   0  0  0  1  0  1  0  0  0  0  0  0
   90.8836  100.9341  -42.1544 H   0  0  0  1  0  1  0  0  0  0  0  0
   90.4327  102.6624  -41.9654 H   0  0  0  1  0  1  0  0  0  0  0  0
   92.6881   99.7451  -43.6375 H   0  0  0  1  0  1  0  0  0  0  0  0
   93.3710  100.2073  -45.2341 H   0  0  0  1  0  1  0  0  0  0  0  0
   91.6686   98.8909  -46.3957 H   0  0  0  1  0  1  0  0  0  0  0  0
   92.5006   97.8518  -45.1886 H   0  0  0  1  0  1  0  0  0  0  0  0
   89.7410   91.0220  -51.1040 H   0  0  0  1  0  1  0  0  0  0  0  0
   90.7757   92.5700  -52.7379 H   0  0  0  1  0  1  0  0  0  0  0  0
   92.8337   93.8127  -52.1370 H   0  0  0  1  0  1  0  0  0  0  0  0
   93.8689   93.4869  -49.9044 H   0  0  0  1  0  1  0  0  0  0  0  0
   92.8239   91.9456  -48.2646 H   0  0  0  1  0  1  0  0  0  0  0  0
  1 10  1  0  0  0  0
  1 11  1  0  0  0  0
  1 22  1  0  0  0  0
  1 33  1  0  0  0  0
  2 16  1  0  0  0  0
  2 17  1  0  0  0  0
  2 19  1  0  0  0  0
  2 38  1  0  0  0  0
  3  4  1  0  0  0  0
  3  9  2  0  0  0  0
  3 12  1  0  0  0  0
  4  5  3  0  0  0  0
  5  6  1  0  0  0  0
  6 28  1  0  0  0  0
  6 31  1  0  0  0  0
  6 32  1  0  0  0  0
  7 23  2  0  0  0  0
  7 27  1  0  0  0  0
  7 28  1  0  0  0  0
  8 10  1  0  0  0  0
  8 12  2  0  0  0  0
  8 14  1  0  0  0  0
  9 13  1  0  0  0  0
  9 35  1  0  0  0  0
 10 36  1  0  0  0  0
 10 37  1  0  0  0  0
 11 15  1  0  0  0  0
 11 39  1  0  0  0  0
 11 40  1  0  0  0  0
 12 41  1  0  0  0  0
 13 14  2  0  0  0  0
 13 30  1  0  0  0  0
 14 29  1  0  0  0  0
 15 16  1  0  0  0  0
 15 42  1  0  0  0  0
 15 43  1  0  0  0  0
 16 21  1  0  0  0  0
 16 44  1  0  0  0  0
 17 18  1  0  0  0  0
 17 45  1  0  0  0  0
 17 46  1  0  0  0  0
 18 47  1  0  0  0  0
 18 48  1  0  0  0  0
 18 49  1  0  0  0  0
 19 20  1  0  0  0  0
 19 50  1  0  0  0  0
 19 51  1  0  0  0  0
 20 52  1  0  0  0  0
 20 53  1  0  0  0  0
 20 54  1  0  0  0  0
 21 22  1  0  0  0  0
 21 55  1  0  0  0  0
 21 56  1  0  0  0  0
 22 57  1  0  0  0  0
 22 58  1  0  0  0  0
 23 24  1  0  0  0  0
 23 59  1  0  0  0  0
 24 25  2  0  0  0  0
 24 60  1  0  0  0  0
 25 26  1  0  0  0  0
 25 61  1  0  0  0  0
 26 27  2  0  0  0  0
 26 62  1  0  0  0  0
 27 63  1  0  0  0  0
 29 34  1  0  0  0  0
M  END
> <ConfScore>
-0.466916

$$$$
4agp


 63 65  0  0  0  0  0  0  0  0999 V2000
    5.4320    2.2550   28.3390 N   0  3  0  1  0  4  0  0  0  0  0  0
    4.8056   -1.3098   27.7638 N   0  3  0  1  0  4  0  0  0  0  0  0
    8.9373    5.6418   27.8432 C   0  0  0  1  0  3  0  0  0  0  0  0
   10.2928    6.0226   28.1151 C   0  0  0  1  0  2  0  0  0  0  0  0
   11.4250    6.3029   28.3766 C   0  0  0  1  0  2  0  0  0  0  0  0
   12.8200    6.7039   28.6481 C   0  0  0  1  0  4  0  0  0  0  0  0
   14.6935    6.1086   30.0514 C   0  0  0  1  0  3  0  0  0  0  0  0
    7.0632    4.2086   28.2453 C   0  0  0  1  0  3  0  0  0  0  0  0
    8.2058    6.3161   26.8905 C   0  0  0  1  0  3  0  0  0  0  0  0
    6.4640    3.0610   28.9950 C   0  0  0  1  0  4  0  0  0  0  0  0
    6.0520    1.4770   27.2550 C   0  0  0  1  0  4  0  0  0  0  0  0
    8.3603    4.6028   28.5309 C   0  0  0  1  0  3  0  0  0  0  0  0
    6.8938    5.9461   26.6208 C   0  0  0  1  0  3  0  0  0  0  0  0
    6.3181    4.8938   27.3004 C   0  0  0  1  0  3  0  0  0  0  0  0
    4.9600    0.8100   26.4490 C   0  0  0  1  0  4  0  0  0  0  0  0
    4.0370   -0.0500   27.3240 C   0  0  0  1  0  4  0  0  0  0  0  0
    5.7496   -1.8149   26.6656 C   0  0  0  1  0  4  0  0  0  0  0  0
    6.7314   -0.7045   26.3433 C   0  0  0  1  0  4  0  0  0  0  0  0
    3.9373   -2.4674   28.2387 C   0  0  0  1  0  4  0  0  0  0  0  0
    3.0050   -2.1006   29.3852 C   0  0  0  1  0  4  0  0  0  0  0  0
    3.5580    0.6920   28.5700 C   0  0  0  1  0  4  0  0  0  0  0  0
    4.7240    1.3610   29.2750 C   0  0  0  1  0  4  0  0  0  0  0  0
   15.3256    7.1422   29.3547 C   0  0  0  1  0  3  0  0  0  0  0  0
   16.6495    7.4841   29.6404 C   0  0  0  1  0  3  0  0  0  0  0  0
   17.3498    6.7915   30.6260 C   0  0  0  1  0  3  0  0  0  0  0  0
   16.7273    5.7539   31.3226 C   0  0  0  1  0  3  0  0  0  0  0  0
   15.3995    5.4164   31.0369 C   0  0  0  1  0  3  0  0  0  0  0  0
   13.3949    5.8805   29.6658 O   0  0  0  1  0  2  0  0  0  0  0  0
    5.0321    4.5325   27.0455 O   0  0  0  1  0  2  0  0  0  0  0  0
    5.7748    7.0024   25.1607 I   0  0  0  1  0  1  0  0  0  0  0  0
   12.8363    7.7527   28.9799 H   0  0  0  1  0  1  0  0  0  0  0  0
   13.4111    6.6032   27.7254 H   0  0  0  1  0  1  0  0  0  0  0  0
    4.7369    2.8837   27.9672 H   0  0  0  1  0  1  0  0  0  0  0  0
    5.0097    3.6273   26.7590 H   0  0  0  1  0  1  0  0  0  0  0  0
    8.6557    7.1392   26.3486 H   0  0  0  1  0  1  0  0  0  0  0  0
    7.2876    2.3807   29.2581 H   0  0  0  1  0  1  0  0  0  0  0  0
    6.0195    3.4709   29.9126 H   0  0  0  1  0  1  0  0  0  0  0  0
    5.3759   -1.0328   28.5492 H   0  0  0  1  0  1  0  0  0  0  0  0
    6.7157    0.7119   27.6822 H   0  0  0  1  0  1  0  0  0  0  0  0
    6.6341    2.1467   26.6056 H   0  0  0  1  0  1  0  0  0  0  0  0
    8.9225    4.0885   29.3011 H   0  0  0  1  0  1  0  0  0  0  0  0
    5.4248    0.1675   25.6861 H   0  0  0  1  0  1  0  0  0  0  0  0
    4.3575    1.5882   25.9564 H   0  0  0  1  0  1  0  0  0  0  0  0
    3.1599   -0.3440   26.7292 H   0  0  0  1  0  1  0  0  0  0  0  0
    5.1714   -2.0741   25.7662 H   0  0  0  1  0  1  0  0  0  0  0  0
    6.2937   -2.7025   27.0196 H   0  0  0  1  0  1  0  0  0  0  0  0
    7.2919   -0.4341   27.2508 H   0  0  0  1  0  1  0  0  0  0  0  0
    6.1818    0.1759   25.9766 H   0  0  0  1  0  1  0  0  0  0  0  0
    7.4337   -1.0484   25.5681 H   0  0  0  1  0  1  0  0  0  0  0  0
    4.5957   -3.2817   28.5733 H   0  0  0  1  0  1  0  0  0  0  0  0
    3.3266   -2.8141   27.3927 H   0  0  0  1  0  1  0  0  0  0  0  0
    2.4118   -2.9818   29.6716 H   0  0  0  1  0  1  0  0  0  0  0  0
    2.3312   -1.2922   29.0647 H   0  0  0  1  0  1  0  0  0  0  0  0
    3.5997   -1.7611   30.2467 H   0  0  0  1  0  1  0  0  0  0  0  0
    3.0827   -0.0249   29.2576 H   0  0  0  1  0  1  0  0  0  0  0  0
    2.8266    1.4580   28.2753 H   0  0  0  1  0  1  0  0  0  0  0  0
    4.3473    1.9483   30.1253 H   0  0  0  1  0  1  0  0  0  0  0  0
    5.4199    0.5906   29.6402 H   0  0  0  1  0  1  0  0  0  0  0  0
   14.7842    7.6834   28.5871 H   0  0  0  1  0  1  0  0  0  0  0  0
   17.1326    8.2867   29.0946 H   0  0  0  1  0  1  0  0  0  0  0  0
   18.3764    7.0582   30.8509 H   0  0  0  1  0  1  0  0  0  0  0  0
   17.2730    5.2081   32.0846 H   0  0  0  1  0  1  0  0  0  0  0  0
   14.9167    4.6138   31.5837 H   0  0  0  1  0  1  0  0  0  0  0  0
  1 10  1  0  0  0  0
  1 11  1  0  0  0  0
  1 22  1  0  0  0  0
  1 33  1  0  0  0  0
  2 16  1  0  0  0  0
  2 17  1  0  0  0  0
  2 19  1  0  0  0  0
  2 38  1  0  0  0  0
  3  4  1  0  0  0  0
  3  9  2  0  0  0  0
  3 12  1  0  0  0  0
  4  5  3  0  0  0  0
  5  6  1  0  0  0  0
  6 28  1  0  0  0  0
  6 31  1  0  0  0  0
  6 32  1  0  0  0  0
  7 23  2  0  0  0  0
  7 27  1  0  0  0  0
  7 28  1  0  0  0  0
  8 10  1  0  0  0  0
  8 12  2  0  0  0  0
  8 14  1  0  0  0  0
  9 13  1  0  0  0  0
  9 35  1  0  0  0  0
 10 36  1  0  0  0  0
 10 37  1  0  0  0  0
 11 15  1  0  0  0  0
 11 39  1  0  0  0  0
 11 40  1  0  0  0  0
 12 41  1  0  0  0  0
 13 14  2  0  0  0  0
 13 30  1  0  0  0  0
 14 29  1  0  0  0  0
 15 16  1  0  0  0  0
 15 42  1  0  0  0  0
 15 43  1  0  0  0  0
 16 21  1  0  0  0  0
 16 44  1  0  0  0  0
 17 18  1  0  0  0  0
 17 45  1  0  0  0  0
 17 46  1  0  0  0  0
 18 47  1  0  0  0  0
 18 48  1  0  0  0  0
 18 49  1  0  0  0  0
 19 20  1  0  0  0  0
 19 50  1  0  0  0  0
 19 51  1  0  0  0  0
 20 52  1  0  0  0  0
 20 53  1  0  0  0  0
 20 54  1  0  0  0  0
 21 22  1  0  0  0  0
 21 55  1  0  0  0  0
 21 56  1  0  0  0  0
 22 57  1  0  0  0  0
 22 58  1  0  0  0  0
 23 24  1  0  0  0  0
 23 59  1  0  0  0  0
 24 25  2  0  0  0  0
 24 60  1  0  0  0  0
 25 26  1  0  0  0  0
 25 61  1  0  0  0  0
 26 27  2  0  0  0  0
 26 62  1  0  0  0  0
 27 63  1  0  0  0  0
 29 34  1  0  0  0  0
M  END
> <ConfScore>
-0.461072

$$$$
4agp


 63 65  0  0  0  0  0  0  0  0999 V2000
   90.4980   98.3810  -44.6910 N   0  3  0  1  0  4  0  0  0  0  0  0
   92.0484  102.3740  -44.2389 N   0  3  0  1  0  4  0  0  0  0  0  0
   90.9727   93.5313  -45.0235 C   0  0  0  1  0  3  0  0  0  0  0  0
   90.9963   92.3561  -45.8450 C   0  0  0  1  0  2  0  0  0  0  0  0
   90.9969   91.4042  -46.5680 C   0  0  0  1  0  2  0  0  0  0  0  0
   91.0259   90.1876  -47.4044 C   0  0  0  1  0  4  0  0  0  0  0  0
   91.2291   91.3415  -49.5165 C   0  0  0  1  0  3  0  0  0  0  0  0
   90.4774   95.8983  -44.7669 C   0  0  0  1  0  3  0  0  0  0  0  0
   91.4170   93.4589  -43.6970 C   0  0  0  1  0  3  0  0  0  0  0  0
   89.9050   97.1660  -45.3350 C   0  0  0  1  0  4  0  0  0  0  0  0
   89.5430   99.5450  -44.7170 C   0  0  0  1  0  4  0  0  0  0  0  0
   90.5046   94.7420  -45.5568 C   0  0  0  1  0  3  0  0  0  0  0  0
   91.3848   94.6300  -42.9224 C   0  0  0  1  0  3  0  0  0  0  0  0
   90.9203   95.8627  -43.4183 C   0  0  0  1  0  3  0  0  0  0  0  0
   90.1750  100.7310  -44.0050 C   0  0  0  1  0  4  0  0  0  0  0  0
   91.4300  101.0810  -44.8020 C   0  0  0  1  0  4  0  0  0  0  0  0
   93.2823  102.8116  -45.0380 C   0  0  0  1  0  4  0  0  0  0  0  0
   92.8717  102.9619  -46.4905 C   0  0  0  1  0  4  0  0  0  0  0  0
   92.4086  102.3309  -42.7598 C   0  0  0  1  0  4  0  0  0  0  0  0
   92.8444  103.6774  -42.1984 C   0  0  0  1  0  4  0  0  0  0  0  0
   92.4510   99.9400  -44.6950 C   0  0  0  1  0  4  0  0  0  0  0  0
   91.8210   98.7070  -45.3220 C   0  0  0  1  0  4  0  0  0  0  0  0
   92.3720   91.8799  -48.9187 C   0  0  0  1  0  3  0  0  0  0  0  0
   93.1745   92.7882  -49.6129 C   0  0  0  1  0  3  0  0  0  0  0  0
   92.8365   93.1645  -50.9113 C   0  0  0  1  0  3  0  0  0  0  0  0
   91.6933   92.6356  -51.5135 C   0  0  0  1  0  3  0  0  0  0  0  0
   90.8935   91.7225  -50.8169 C   0  0  0  1  0  3  0  0  0  0  0  0
   90.5354   90.4645  -48.7186 O   0  0  0  1  0  2  0  0  0  0  0  0
   90.8968   96.9754  -42.6368 O   0  0  0  1  0  2  0  0  0  0  0  0
   92.0665   94.5369  -40.9158 I   0  0  0  1  0  1  0  0  0  0  0  0
   90.3964   89.4145  -46.9393 H   0  0  0  1  0  1  0  0  0  0  0  0
   92.0614   89.8221  -47.4751 H   0  0  0  1  0  1  0  0  0  0  0  0
   90.6654   98.1804  -43.7172 H   0  0  0  1  0  1  0  0  0  0  0  0
   91.1548   97.7292  -43.1536 H   0  0  0  1  0  1  0  0  0  0  0  0
   91.7756   92.5255  -43.2802 H   0  0  0  1  0  1  0  0  0  0  0  0
   90.1130   97.1980  -46.4149 H   0  0  0  1  0  1  0  0  0  0  0  0
   88.8185   97.1707  -45.1704 H   0  0  0  1  0  1  0  0  0  0  0  0
   91.3476  103.0924  -44.3468 H   0  0  0  1  0  1  0  0  0  0  0  0
   88.6101   99.2656  -44.2072 H   0  0  0  1  0  1  0  0  0  0  0  0
   89.3242   99.8170  -45.7597 H   0  0  0  1  0  1  0  0  0  0  0  0
   90.1628   94.7825  -46.5840 H   0  0  0  1  0  1  0  0  0  0  0  0
   90.4414  100.4592  -42.9725 H   0  0  0  1  0  1  0  0  0  0  0  0
   89.4798  101.5841  -43.9926 H   0  0  0  1  0  1  0  0  0  0  0  0
   91.1613  101.2320  -45.8577 H   0  0  0  1  0  1  0  0  0  0  0  0
   94.0726  102.0513  -44.9507 H   0  0  0  1  0  1  0  0  0  0  0  0
   93.6544  103.7726  -44.6544 H   0  0  0  1  0  1  0  0  0  0  0  0
   92.0662  103.7075  -46.5699 H   0  0  0  1  0  1  0  0  0  0  0  0
   92.5133  101.9938  -46.8723 H   0  0  0  1  0  1  0  0  0  0  0  0
   93.7373  103.2936  -47.0847 H   0  0  0  1  0  1  0  0  0  0  0  0
   93.2313  101.6148  -42.6228 H   0  0  0  1  0  1  0  0  0  0  0  0
   91.5279  101.9895  -42.1970 H   0  0  0  1  0  1  0  0  0  0  0  0
   93.0700  103.5722  -41.1268 H   0  0  0  1  0  1  0  0  0  0  0  0
   92.0346  104.4097  -42.3334 H   0  0  0  1  0  1  0  0  0  0  0  0
   93.7428  104.0233  -42.7317 H   0  0  0  1  0  1  0  0  0  0  0  0
   92.6881   99.7451  -43.6375 H   0  0  0  1  0  1  0  0  0  0  0  0
   93.3710  100.2073  -45.2341 H   0  0  0  1  0  1  0  0  0  0  0  0
   91.6686   98.8909  -46.3957 H   0  0  0  1  0  1  0  0  0  0  0  0
   92.5006   97.8518  -45.1886 H   0  0  0  1  0  1  0  0  0  0  0  0
   92.6384   91.5897  -47.9086 H   0  0  0  1  0  1  0  0  0  0  0  0
   94.0589   93.2018  -49.1414 H   0  0  0  1  0  1  0  0  0  0  0  0
   93.4605   93.8670  -51.4523 H   0  0  0  1  0  1  0  0  0  0  0  0
   91.4238   92.9331  -52.5211 H   0  0  0  1  0  1  0  0  0  0  0  0
   90.0093   91.3089  -51.2893 H   0  0  0  1  0  1  0  0  0  0  0  0
  1 10  1  0  0  0  0
  1 11  1  0  0  0  0
  1 22  1  0  0  0  0
  1 33  1  0  0  0  0
  2 16  1  0  0  0  0
  2 17  1  0  0  0  0
  2 19  1  0  0  0  0
  2 38  1  0  0  0  0
  3  4  1  0  0  0  0
  3  9  2  0  0  0  0
  3 12  1  0  0  0  0
  4  5  3  0  0  0  0
  5  6  1  0  0  0  0
  6 28  1  0  0  0  0
  6 31  1  0  0  0  0
  6 32  1  0  0  0  0
  7 23  2  0  0  0  0
  7 27  1  0  0  0  0
  7 28  1  0  0  0  0
  8 10  1  0  0  0  0
  8 12  2  0  0  0  0
  8 14  1  0  0  0  0
  9 13  1  0  0  0  0
  9 35  1  0  0  0  0
 10 36  1  0  0  0  0
 10 37  1  0  0  0  0
 11 15  1  0  0  0  0
 11 39  1  0  0  0  0
 11 40  1  0  0  0  0
 12 41  1  0  0  0  0
 13 14  2  0  0  0  0
 13 30  1  0  0  0  0
 14 29  1  0  0  0  0
 15 16  1  0  0  0  0
 15 42  1  0  0  0  0
 15 43  1  0  0  0  0
 16 21  1  0  0  0  0
 16 44  1  0  0  0  0
 17 18  1  0  0  0  0
 17 45  1  0  0  0  0
 17 46  1  0  0  0  0
 18 47  1  0  0  0  0
 18 48  1  0  0  0  0
 18 49  1  0  0  0  0
 19 20  1  0  0  0  0
 19 50  1  0  0  0  0
 19 51  1  0  0  0  0
 20 52  1  0  0  0  0
 20 53  1  0  0  0  0
 20 54  1  0  0  0  0
 21 22  1  0  0  0  0
 21 55  1  0  0  0  0
 21 56  1  0  0  0  0
 22 57  1  0  0  0  0
 22 58  1  0  0  0  0
 23 24  1  0  0  0  0
 23 59  1  0  0  0  0
 24 25  2  0  0  0  0
 24 60  1  0  0  0  0
 25 26  1  0  0  0  0
 25 61  1  0  0  0  0
 26 27  2  0  0  0  0
 26 62  1  0  0  0  0
 27 63  1  0  0  0  0
 29 34  1  0  0  0  0
M  END
> <ConfScore>
-0.458495

$$$$
4agp


 63 65  0  0  0  0  0  0  0  0999 V2000
    5.4320    2.2550   28.3390 N   0  3  0  1  0  4  0  0  0  0  0  0
    4.8056   -1.3098   27.7638 N   0  3  0  1  0  4  0  0  0  0  0  0
    8.9423    5.6321   27.8323 C   0  0  0  1  0  3  0  0  0  0  0  0
   10.3028    6.0030   28.0931 C   0  0  0  1  0  2  0  0  0  0  0  0
   11.4392    6.2749   28.3451 C   0  0  0  1  0  2  0  0  0  0  0  0
   12.8392    6.6658   28.6051 C   0  0  0  1  0  4  0  0  0  0  0  0
   14.7223    6.0517   29.9873 C   0  0  0  1  0  3  0  0  0  0  0  0
    7.0632    4.2086   28.2453 C   0  0  0  1  0  3  0  0  0  0  0  0
    8.2060    6.3157   26.8901 C   0  0  0  1  0  3  0  0  0  0  0  0
    6.4640    3.0610   28.9950 C   0  0  0  1  0  4  0  0  0  0  0  0
    6.0520    1.4770   27.2550 C   0  0  0  1  0  4  0  0  0  0  0  0
    8.3655    4.5933   28.5204 C   0  0  0  1  0  3  0  0  0  0  0  0
    6.8892    5.9553   26.6312 C   0  0  0  1  0  3  0  0  0  0  0  0
    6.3134    4.9032   27.3111 C   0  0  0  1  0  3  0  0  0  0  0  0
    4.9600    0.8100   26.4490 C   0  0  0  1  0  4  0  0  0  0  0  0
    4.0370   -0.0500   27.3240 C   0  0  0  1  0  4  0  0  0  0  0  0
    5.7496   -1.8149   26.6656 C   0  0  0  1  0  4  0  0  0  0  0  0
    6.7314   -0.7045   26.3433 C   0  0  0  1  0  4  0  0  0  0  0  0
    3.9373   -2.4674   28.2387 C   0  0  0  1  0  4  0  0  0  0  0  0
    4.7336   -3.6963   28.6560 C   0  0  0  1  0  4  0  0  0  0  0  0
    3.5580    0.6920   28.5700 C   0  0  0  1  0  4  0  0  0  0  0  0
    4.7240    1.3610   29.2750 C   0  0  0  1  0  4  0  0  0  0  0  0
   15.3542    7.0848   29.2897 C   0  0  0  1  0  3  0  0  0  0  0  0
   16.6828    7.4170   29.5644 C   0  0  0  1  0  3  0  0  0  0  0  0
   17.3882    6.7151   30.5398 C   0  0  0  1  0  3  0  0  0  0  0  0
   16.7659    5.6779   31.2371 C   0  0  0  1  0  3  0  0  0  0  0  0
   15.4334    5.3501   30.9626 C   0  0  0  1  0  3  0  0  0  0  0  0
   13.4187    5.8337   29.6131 O   0  0  0  1  0  2  0  0  0  0  0  0
    5.0228    4.5512   27.0667 O   0  0  0  1  0  2  0  0  0  0  0  0
    5.7629    7.0259   25.1872 I   0  0  0  1  0  1  0  0  0  0  0  0
   12.8653    7.7128   28.9420 H   0  0  0  1  0  1  0  0  0  0  0  0
   13.4208    6.5661   27.6763 H   0  0  0  1  0  1  0  0  0  0  0  0
    4.7369    2.8837   27.9672 H   0  0  0  1  0  1  0  0  0  0  0  0
    4.9919    3.6477   26.7759 H   0  0  0  1  0  1  0  0  0  0  0  0
    8.6558    7.1387   26.3480 H   0  0  0  1  0  1  0  0  0  0  0  0
    7.2876    2.3807   29.2581 H   0  0  0  1  0  1  0  0  0  0  0  0
    6.0195    3.4709   29.9126 H   0  0  0  1  0  1  0  0  0  0  0  0
    5.3759   -1.0328   28.5492 H   0  0  0  1  0  1  0  0  0  0  0  0
    6.7157    0.7119   27.6822 H   0  0  0  1  0  1  0  0  0  0  0  0
    6.6341    2.1467   26.6056 H   0  0  0  1  0  1  0  0  0  0  0  0
    8.9317    4.0716   29.2825 H   0  0  0  1  0  1  0  0  0  0  0  0
    5.4248    0.1675   25.6861 H   0  0  0  1  0  1  0  0  0  0  0  0
    4.3575    1.5882   25.9564 H   0  0  0  1  0  1  0  0  0  0  0  0
    3.1599   -0.3440   26.7292 H   0  0  0  1  0  1  0  0  0  0  0  0
    5.1714   -2.0741   25.7662 H   0  0  0  1  0  1  0  0  0  0  0  0
    6.2937   -2.7025   27.0196 H   0  0  0  1  0  1  0  0  0  0  0  0
    7.2919   -0.4341   27.2508 H   0  0  0  1  0  1  0  0  0  0  0  0
    6.1818    0.1759   25.9766 H   0  0  0  1  0  1  0  0  0  0  0  0
    7.4337   -1.0484   25.5681 H   0  0  0  1  0  1  0  0  0  0  0  0
    3.2608   -2.7532   27.4207 H   0  0  0  1  0  1  0  0  0  0  0  0
    3.3464   -2.1281   29.1015 H   0  0  0  1  0  1  0  0  0  0  0  0
    4.0426   -4.4860   28.9865 H   0  0  0  1  0  1  0  0  0  0  0  0
    5.4105   -3.4308   29.4815 H   0  0  0  1  0  1  0  0  0  0  0  0
    5.3242   -4.0579   27.8007 H   0  0  0  1  0  1  0  0  0  0  0  0
    3.0827   -0.0249   29.2576 H   0  0  0  1  0  1  0  0  0  0  0  0
    2.8266    1.4580   28.2753 H   0  0  0  1  0  1  0  0  0  0  0  0
    4.3473    1.9483   30.1253 H   0  0  0  1  0  1  0  0  0  0  0  0
    5.4199    0.5906   29.6402 H   0  0  0  1  0  1  0  0  0  0  0  0
   14.8089    7.6333   28.5301 H   0  0  0  1  0  1  0  0  0  0  0  0
   17.1658    8.2193   29.0180 H   0  0  0  1  0  1  0  0  0  0  0  0
   18.4186    6.9742   30.7561 H   0  0  0  1  0  1  0  0  0  0  0  0
   17.3154    5.1248   31.9912 H   0  0  0  1  0  1  0  0  0  0  0  0
   14.9508    4.5479   31.5099 H   0  0  0  1  0  1  0  0  0  0  0  0
  1 10  1  0  0  0  0
  1 11  1  0  0  0  0
  1 22  1  0  0  0  0
  1 33  1  0  0  0  0
  2 16  1  0  0  0  0
  2 17  1  0  0  0  0
  2 19  1  0  0  0  0
  2 38  1  0  0  0  0
  3  4  1  0  0  0  0
  3  9  2  0  0  0  0
  3 12  1  0  0  0  0
  4  5  3  0  0  0  0
  5  6  1  0  0  0  0
  6 28  1  0  0  0  0
  6 31  1  0  0  0  0
  6 32  1  0  0  0  0
  7 23  2  0  0  0  0
  7 27  1  0  0  0  0
  7 28  1  0  0  0  0
  8 10  1  0  0  0  0
  8 12  2  0  0  0  0
  8 14  1  0  0  0  0
  9 13  1  0  0  0  0
  9 35  1  0  0  0  0
 10 36  1  0  0  0  0
 10 37  1  0  0  0  0
 11 15  1  0  0  0  0
 11 39  1  0  0  0  0
 11 40  1  0  0  0  0
 12 41  1  0  0  0  0
 13 14  2  0  0  0  0
 13 30  1  0  0  0  0
 14 29  1  0  0  0  0
 15 16  1  0  0  0  0
 15 42  1  0  0  0  0
 15 43  1  0  0  0  0
 16 21  1  0  0  0  0
 16 44  1  0  0  0  0
 17 18  1  0  0  0  0
 17 45  1  0  0  0  0
 17 46  1  0  0  0  0
 18 47  1  0  0  0  0
 18 48  1  0  0  0  0
 18 49  1  0  0  0  0
 19 20  1  0  0  0  0
 19 50  1  0  0  0  0
 19 51  1  0  0  0  0
 20 52  1  0  0  0  0
 20 53  1  0  0  0  0
 20 54  1  0  0  0  0
 21 22  1  0  0  0  0
 21 55  1  0  0  0  0
 21 56  1  0  0  0  0
 22 57  1  0  0  0  0
 22 58  1  0  0  0  0
 23 24  1  0  0  0  0
 23 59  1  0  0  0  0
 24 25  2  0  0  0  0
 24 60  1  0  0  0  0
 25 26  1  0  0  0  0
 25 61  1  0  0  0  0
 26 27  2  0  0  0  0
 26 62  1  0  0  0  0
 27 63  1  0  0  0  0
 29 34  1  0  0  0  0
M  END
> <ConfScore>
-0.452651

$$$$
4agp


 63 65  0  0  0  0  0  0  0  0999 V2000
    5.4320    2.2550   28.3390 N   0  3  0  1  0  4  0  0  0  0  0  0
    4.8056   -1.3098   27.7638 N   0  3  0  1  0  4  0  0  0  0  0  0
    9.5307    4.8907   27.8324 C   0  0  0  1  0  3  0  0  0  0  0  0
   10.8647    5.1457   28.2928 C   0  0  0  1  0  2  0  0  0  0  0  0
   11.9625    5.4058   28.6879 C   0  0  0  1  0  2  0  0  0  0  0  0
   13.3392    5.6568   29.1592 C   0  0  0  1  0  4  0  0  0  0  0  0
   14.6950    7.4153   30.1094 C   0  0  0  1  0  3  0  0  0  0  0  0
    7.3848    3.8784   28.1452 C   0  0  0  1  0  3  0  0  0  0  0  0
    9.1126    5.3797   26.6144 C   0  0  0  1  0  3  0  0  0  0  0  0
    6.4640    3.0610   28.9950 C   0  0  0  1  0  4  0  0  0  0  0  0
    6.0520    1.4770   27.2550 C   0  0  0  1  0  4  0  0  0  0  0  0
    8.6622    4.1577   28.6029 C   0  0  0  1  0  3  0  0  0  0  0  0
    7.8224    5.1298   26.1629 C   0  0  0  1  0  3  0  0  0  0  0  0
    6.9541    4.3816   26.9292 C   0  0  0  1  0  3  0  0  0  0  0  0
    4.9600    0.8100   26.4490 C   0  0  0  1  0  4  0  0  0  0  0  0
    4.0370   -0.0500   27.3240 C   0  0  0  1  0  4  0  0  0  0  0  0
    3.8589   -2.4735   28.0834 C   0  0  0  1  0  4  0  0  0  0  0  0
    3.0513   -2.7777   26.8358 C   0  0  0  1  0  4  0  0  0  0  0  0
    5.7583   -1.1132   28.9356 C   0  0  0  1  0  4  0  0  0  0  0  0
    6.6310   -2.3272   29.2229 C   0  0  0  1  0  4  0  0  0  0  0  0
    3.5580    0.6920   28.5700 C   0  0  0  1  0  4  0  0  0  0  0  0
    4.7240    1.3610   29.2750 C   0  0  0  1  0  4  0  0  0  0  0  0
   15.6823    6.4261   30.1011 C   0  0  0  1  0  3  0  0  0  0  0  0
   16.9708    6.7062   30.5622 C   0  0  0  1  0  3  0  0  0  0  0  0
   17.2786    7.9799   31.0361 C   0  0  0  1  0  3  0  0  0  0  0  0
   16.2964    8.9720   31.0531 C   0  0  0  1  0  3  0  0  0  0  0  0
   15.0075    8.6895   30.5867 C   0  0  0  1  0  3  0  0  0  0  0  0
   13.4766    6.9997   29.6302 O   0  0  0  1  0  2  0  0  0  0  0  0
    5.6880    4.1405   26.4953 O   0  0  0  1  0  2  0  0  0  0  0  0
    7.1877    5.9007   24.2914 I   0  0  0  1  0  1  0  0  0  0  0  0
   14.0411    5.4918   28.3282 H   0  0  0  1  0  1  0  0  0  0  0  0
   13.5731    4.9610   29.9789 H   0  0  0  1  0  1  0  0  0  0  0  0
    4.7369    2.8837   27.9672 H   0  0  0  1  0  1  0  0  0  0  0  0
    5.6372    3.2592   26.1451 H   0  0  0  1  0  1  0  0  0  0  0  0
    9.7932    5.9621   26.0053 H   0  0  0  1  0  1  0  0  0  0  0  0
    7.0903    2.3712   29.5801 H   0  0  0  1  0  1  0  0  0  0  0  0
    5.9493    3.7549   29.6741 H   0  0  0  1  0  1  0  0  0  0  0  0
    5.3695   -1.5867   26.9738 H   0  0  0  1  0  1  0  0  0  0  0  0
    6.7157    0.7119   27.6822 H   0  0  0  1  0  1  0  0  0  0  0  0
    6.6341    2.1467   26.6056 H   0  0  0  1  0  1  0  0  0  0  0  0
    8.9777    3.7957   29.5741 H   0  0  0  1  0  1  0  0  0  0  0  0
    5.4248    0.1675   25.6861 H   0  0  0  1  0  1  0  0  0  0  0  0
    4.3575    1.5882   25.9564 H   0  0  0  1  0  1  0  0  0  0  0  0
    3.1599   -0.3440   26.7292 H   0  0  0  1  0  1  0  0  0  0  0  0
    3.1838   -2.1909   28.9048 H   0  0  0  1  0  1  0  0  0  0  0  0
    4.4410   -3.3593   28.3759 H   0  0  0  1  0  1  0  0  0  0  0  0
    2.3618   -3.6110   27.0380 H   0  0  0  1  0  1  0  0  0  0  0  0
    3.7323   -3.0563   26.0172 H   0  0  0  1  0  1  0  0  0  0  0  0
    2.4734   -1.8864   26.5458 H   0  0  0  1  0  1  0  0  0  0  0  0
    5.1641   -0.8921   29.8337 H   0  0  0  1  0  1  0  0  0  0  0  0
    6.4145   -0.2600   28.7111 H   0  0  0  1  0  1  0  0  0  0  0  0
    7.2904   -2.1111   30.0766 H   0  0  0  1  0  1  0  0  0  0  0  0
    7.2407   -2.5577   28.3367 H   0  0  0  1  0  1  0  0  0  0  0  0
    5.9911   -3.1903   29.4611 H   0  0  0  1  0  1  0  0  0  0  0  0
    3.0827   -0.0249   29.2576 H   0  0  0  1  0  1  0  0  0  0  0  0
    2.8266    1.4580   28.2753 H   0  0  0  1  0  1  0  0  0  0  0  0
    4.3473    1.9483   30.1253 H   0  0  0  1  0  1  0  0  0  0  0  0
    5.4199    0.5906   29.6402 H   0  0  0  1  0  1  0  0  0  0  0  0
   15.4468    5.4339   29.7332 H   0  0  0  1  0  1  0  0  0  0  0  0
   17.7306    5.9328   30.5530 H   0  0  0  1  0  1  0  0  0  0  0  0
   18.2793    8.1994   31.3912 H   0  0  0  1  0  1  0  0  0  0  0  0
   16.5315    9.9618   31.4290 H   0  0  0  1  0  1  0  0  0  0  0  0
   14.2482    9.4637   30.5956 H   0  0  0  1  0  1  0  0  0  0  0  0
  1 10  1  0  0  0  0
  1 11  1  0  0  0  0
  1 22  1  0  0  0  0
  1 33  1  0  0  0  0
  2 16  1  0  0  0  0
  2 17  1  0  0  0  0
  2 19  1  0  0  0  0
  2 38  1  0  0  0  0
  3  4  1  0  0  0  0
  3  9  2  0  0  0  0
  3 12  1  0  0  0  0
  4  5  3  0  0  0  0
  5  6  1  0  0  0  0
  6 28  1  0  0  0  0
  6 31  1  0  0  0  0
  6 32  1  0  0  0  0
  7 23  2  0  0  0  0
  7 27  1  0  0  0  0
  7 28  1  0  0  0  0
  8 10  1  0  0  0  0
  8 12  2  0  0  0  0
  8 14  1  0  0  0  0
  9 13  1  0  0  0  0
  9 35  1  0  0  0  0
 10 36  1  0  0  0  0
 10 37  1  0  0  0  0
 11 15  1  0  0  0  0
 11 39  1  0  0  0  0
 11 40  1  0  0  0  0
 12 41  1  0  0  0  0
 13 14  2  0  0  0  0
 13 30  1  0  0  0  0
 14 29  1  0  0  0  0
 15 16  1  0  0  0  0
 15 42  1  0  0  0  0
 15 43  1  0  0  0  0
 16 21  1  0  0  0  0
 16 44  1  0  0  0  0
 17 18  1  0  0  0  0
 17 45  1  0  0  0  0
 17 46  1  0  0  0  0
 18 47  1  0  0  0  0
 18 48  1  0  0  0  0
 18 49  1  0  0  0  0
 19 20  1  0  0  0  0
 19 50  1  0  0  0  0
 19 51  1  0  0  0  0
 20 52  1  0  0  0  0
 20 53  1  0  0  0  0
 20 54  1  0  0  0  0
 21 22  1  0  0  0  0
 21 55  1  0  0  0  0
 21 56  1  0  0  0  0
 22 57  1  0  0  0  0
 22 58  1  0  0  0  0
 23 24  1  0  0  0  0
 23 59  1  0  0  0  0
 24 25  2  0  0  0  0
 24 60  1  0  0  0  0
 25 26  1  0  0  0  0
 25 61  1  0  0  0  0
 26 27  2  0  0  0  0
 26 62  1  0  0  0  0
 27 63  1  0  0  0  0
 29 34  1  0  0  0  0
M  END
> <ConfScore>
-0.452651

$$$$
4agp


 63 65  0  0  0  0  0  0  0  0999 V2000
    5.4320    2.2550   28.3390 N   0  3  0  1  0  4  0  0  0  0  0  0
    4.8056   -1.3098   27.7638 N   0  3  0  1  0  4  0  0  0  0  0  0
    9.5307    4.8907   27.8324 C   0  0  0  1  0  3  0  0  0  0  0  0
   10.8647    5.1457   28.2928 C   0  0  0  1  0  2  0  0  0  0  0  0
   11.9625    5.4058   28.6879 C   0  0  0  1  0  2  0  0  0  0  0  0
   13.3392    5.6568   29.1592 C   0  0  0  1  0  4  0  0  0  0  0  0
   14.6950    7.4153   30.1094 C   0  0  0  1  0  3  0  0  0  0  0  0
    7.3848    3.8784   28.1452 C   0  0  0  1  0  3  0  0  0  0  0  0
    9.1126    5.3797   26.6144 C   0  0  0  1  0  3  0  0  0  0  0  0
    6.4640    3.0610   28.9950 C   0  0  0  1  0  4  0  0  0  0  0  0
    6.0520    1.4770   27.2550 C   0  0  0  1  0  4  0  0  0  0  0  0
    8.6622    4.1577   28.6029 C   0  0  0  1  0  3  0  0  0  0  0  0
    7.8224    5.1298   26.1629 C   0  0  0  1  0  3  0  0  0  0  0  0
    6.9541    4.3816   26.9292 C   0  0  0  1  0  3  0  0  0  0  0  0
    4.9600    0.8100   26.4490 C   0  0  0  1  0  4  0  0  0  0  0  0
    4.0370   -0.0500   27.3240 C   0  0  0  1  0  4  0  0  0  0  0  0
    5.4748   -1.1218   29.1311 C   0  0  0  1  0  4  0  0  0  0  0  0
    4.3913   -0.8051   30.1443 C   0  0  0  1  0  4  0  0  0  0  0  0
    5.8443   -1.8161   26.7718 C   0  0  0  1  0  4  0  0  0  0  0  0
    6.4511   -3.1588   27.1556 C   0  0  0  1  0  4  0  0  0  0  0  0
    3.5580    0.6920   28.5700 C   0  0  0  1  0  4  0  0  0  0  0  0
    4.7240    1.3610   29.2750 C   0  0  0  1  0  4  0  0  0  0  0  0
   15.6823    6.4261   30.1011 C   0  0  0  1  0  3  0  0  0  0  0  0
   16.9708    6.7062   30.5622 C   0  0  0  1  0  3  0  0  0  0  0  0
   17.2786    7.9799   31.0361 C   0  0  0  1  0  3  0  0  0  0  0  0
   16.2964    8.9720   31.0531 C   0  0  0  1  0  3  0  0  0  0  0  0
   15.0075    8.6895   30.5867 C   0  0  0  1  0  3  0  0  0  0  0  0
   13.4766    6.9997   29.6302 O   0  0  0  1  0  2  0  0  0  0  0  0
    5.6880    4.1405   26.4953 O   0  0  0  1  0  2  0  0  0  0  0  0
    7.1877    5.9007   24.2914 I   0  0  0  1  0  1  0  0  0  0  0  0
   14.0411    5.4918   28.3282 H   0  0  0  1  0  1  0  0  0  0  0  0
   13.5731    4.9610   29.9789 H   0  0  0  1  0  1  0  0  0  0  0  0
    4.7369    2.8837   27.9672 H   0  0  0  1  0  1  0  0  0  0  0  0
    5.6372    3.2592   26.1451 H   0  0  0  1  0  1  0  0  0  0  0  0
    9.7932    5.9621   26.0053 H   0  0  0  1  0  1  0  0  0  0  0  0
    7.0903    2.3712   29.5801 H   0  0  0  1  0  1  0  0  0  0  0  0
    5.9493    3.7549   29.6741 H   0  0  0  1  0  1  0  0  0  0  0  0
    4.1167   -2.0409   27.8621 H   0  0  0  1  0  1  0  0  0  0  0  0
    6.7157    0.7119   27.6822 H   0  0  0  1  0  1  0  0  0  0  0  0
    6.6341    2.1467   26.6056 H   0  0  0  1  0  1  0  0  0  0  0  0
    8.9777    3.7957   29.5741 H   0  0  0  1  0  1  0  0  0  0  0  0
    5.4248    0.1675   25.6861 H   0  0  0  1  0  1  0  0  0  0  0  0
    4.3575    1.5882   25.9564 H   0  0  0  1  0  1  0  0  0  0  0  0
    3.1599   -0.3440   26.7292 H   0  0  0  1  0  1  0  0  0  0  0  0
    6.1949   -0.2915   29.0833 H   0  0  0  1  0  1  0  0  0  0  0  0
    5.9981   -2.0444   29.4210 H   0  0  0  1  0  1  0  0  0  0  0  0
    4.8453   -0.6649   31.1368 H   0  0  0  1  0  1  0  0  0  0  0  0
    3.6725   -1.6377   30.1849 H   0  0  0  1  0  1  0  0  0  0  0  0
    3.8686    0.1174   29.8472 H   0  0  0  1  0  1  0  0  0  0  0  0
    6.6537   -1.0750   26.7070 H   0  0  0  1  0  1  0  0  0  0  0  0
    5.3641   -1.9213   25.7884 H   0  0  0  1  0  1  0  0  0  0  0  0
    7.1875   -3.4590   26.3954 H   0  0  0  1  0  1  0  0  0  0  0  0
    5.6555   -3.9161   27.2160 H   0  0  0  1  0  1  0  0  0  0  0  0
    6.9469   -3.0705   28.1341 H   0  0  0  1  0  1  0  0  0  0  0  0
    3.0827   -0.0249   29.2576 H   0  0  0  1  0  1  0  0  0  0  0  0
    2.8266    1.4580   28.2753 H   0  0  0  1  0  1  0  0  0  0  0  0
    4.3473    1.9483   30.1253 H   0  0  0  1  0  1  0  0  0  0  0  0
    5.4199    0.5906   29.6402 H   0  0  0  1  0  1  0  0  0  0  0  0
   15.4468    5.4339   29.7332 H   0  0  0  1  0  1  0  0  0  0  0  0
   17.7306    5.9328   30.5530 H   0  0  0  1  0  1  0  0  0  0  0  0
   18.2793    8.1994   31.3912 H   0  0  0  1  0  1  0  0  0  0  0  0
   16.5315    9.9618   31.4290 H   0  0  0  1  0  1  0  0  0  0  0  0
   14.2482    9.4637   30.5956 H   0  0  0  1  0  1  0  0  0  0  0  0
  1 10  1  0  0  0  0
  1 11  1  0  0  0  0
  1 22  1  0  0  0  0
  1 33  1  0  0  0  0
  2 16  1  0  0  0  0
  2 17  1  0  0  0  0
  2 19  1  0  0  0  0
  2 38  1  0  0  0  0
  3  4  1  0  0  0  0
  3  9  2  0  0  0  0
  3 12  1  0  0  0  0
  4  5  3  0  0  0  0
  5  6  1  0  0  0  0
  6 28  1  0  0  0  0
  6 31  1  0  0  0  0
  6 32  1  0  0  0  0
  7 23  2  0  0  0  0
  7 27  1  0  0  0  0
  7 28  1  0  0  0  0
  8 10  1  0  0  0  0
  8 12  2  0  0  0  0
  8 14  1  0  0  0  0
  9 13  1  0  0  0  0
  9 35  1  0  0  0  0
 10 36  1  0  0  0  0
 10 37  1  0  0  0  0
 11 15  1  0  0  0  0
 11 39  1  0  0  0  0
 11 40  1  0  0  0  0
 12 41  1  0  0  0  0
 13 14  2  0  0  0  0
 13 30  1  0  0  0  0
 14 29  1  0  0  0  0
 15 16  1  0  0  0  0
 15 42  1  0  0  0  0
 15 43  1  0  0  0  0
 16 21  1  0  0  0  0
 16 44  1  0  0  0  0
 17 18  1  0  0  0  0
 17 45  1  0  0  0  0
 17 46  1  0  0  0  0
 18 47  1  0  0  0  0
 18 48  1  0  0  0  0
 18 49  1  0  0  0  0
 19 20  1  0  0  0  0
 19 50  1  0  0  0  0
 19 51  1  0  0  0  0
 20 52  1  0  0  0  0
 20 53  1  0  0  0  0
 20 54  1  0  0  0  0
 21 22  1  0  0  0  0
 21 55  1  0  0  0  0
 21 56  1  0  0  0  0
 22 57  1  0  0  0  0
 22 58  1  0  0  0  0
 23 24  1  0  0  0  0
 23 59  1  0  0  0  0
 24 25  2  0  0  0  0
 24 60  1  0  0  0  0
 25 26  1  0  0  0  0
 25 61  1  0  0  0  0
 26 27  2  0  0  0  0
 26 62  1  0  0  0  0
 27 63  1  0  0  0  0
 29 34  1  0  0  0  0
M  END
> <ConfScore>
-0.452651

$$$$
4agp


 63 65  0  0  0  0  0  0  0  0999 V2000
    5.4320    2.2550   28.3390 N   0  3  0  1  0  4  0  0  0  0  0  0
    4.8056   -1.3098   27.7638 N   0  3  0  1  0  4  0  0  0  0  0  0
    9.5307    4.8907   27.8324 C   0  0  0  1  0  3  0  0  0  0  0  0
   10.8647    5.1457   28.2928 C   0  0  0  1  0  2  0  0  0  0  0  0
   11.9625    5.4058   28.6879 C   0  0  0  1  0  2  0  0  0  0  0  0
   13.3392    5.6568   29.1592 C   0  0  0  1  0  4  0  0  0  0  0  0
   14.6894    7.4091   30.1287 C   0  0  0  1  0  3  0  0  0  0  0  0
    7.3848    3.8784   28.1452 C   0  0  0  1  0  3  0  0  0  0  0  0
    9.1126    5.3797   26.6144 C   0  0  0  1  0  3  0  0  0  0  0  0
    6.4640    3.0610   28.9950 C   0  0  0  1  0  4  0  0  0  0  0  0
    6.0520    1.4770   27.2550 C   0  0  0  1  0  4  0  0  0  0  0  0
    8.6622    4.1577   28.6029 C   0  0  0  1  0  3  0  0  0  0  0  0
    7.8224    5.1298   26.1629 C   0  0  0  1  0  3  0  0  0  0  0  0
    6.9541    4.3816   26.9292 C   0  0  0  1  0  3  0  0  0  0  0  0
    4.9600    0.8100   26.4490 C   0  0  0  1  0  4  0  0  0  0  0  0
    4.0370   -0.0500   27.3240 C   0  0  0  1  0  4  0  0  0  0  0  0
    5.4748   -1.1218   29.1311 C   0  0  0  1  0  4  0  0  0  0  0  0
    4.3913   -0.8051   30.1443 C   0  0  0  1  0  4  0  0  0  0  0  0
    5.8443   -1.8161   26.7718 C   0  0  0  1  0  4  0  0  0  0  0  0
    6.4511   -3.1588   27.1556 C   0  0  0  1  0  4  0  0  0  0  0  0
    3.5580    0.6920   28.5700 C   0  0  0  1  0  4  0  0  0  0  0  0
    4.7240    1.3610   29.2750 C   0  0  0  1  0  4  0  0  0  0  0  0
   14.7129    8.7381   30.5607 C   0  0  0  1  0  3  0  0  0  0  0  0
   15.8813    9.2912   31.0898 C   0  0  0  1  0  3  0  0  0  0  0  0
   17.0352    8.5163   31.1887 C   0  0  0  1  0  3  0  0  0  0  0  0
   17.0215    7.1896   30.7540 C   0  0  0  1  0  3  0  0  0  0  0  0
   15.8482    6.6370   30.2282 C   0  0  0  1  0  3  0  0  0  0  0  0
   13.4766    6.9997   29.6302 O   0  0  0  1  0  2  0  0  0  0  0  0
    5.6880    4.1405   26.4953 O   0  0  0  1  0  2  0  0  0  0  0  0
    7.1877    5.9007   24.2914 I   0  0  0  1  0  1  0  0  0  0  0  0
   14.0411    5.4918   28.3282 H   0  0  0  1  0  1  0  0  0  0  0  0
   13.5731    4.9610   29.9789 H   0  0  0  1  0  1  0  0  0  0  0  0
    4.7369    2.8837   27.9672 H   0  0  0  1  0  1  0  0  0  0  0  0
    5.6372    3.2592   26.1451 H   0  0  0  1  0  1  0  0  0  0  0  0
    9.7932    5.9621   26.0053 H   0  0  0  1  0  1  0  0  0  0  0  0
    7.0903    2.3712   29.5801 H   0  0  0  1  0  1  0  0  0  0  0  0
    5.9493    3.7549   29.6741 H   0  0  0  1  0  1  0  0  0  0  0  0
    4.1167   -2.0409   27.8621 H   0  0  0  1  0  1  0  0  0  0  0  0
    6.7157    0.7119   27.6822 H   0  0  0  1  0  1  0  0  0  0  0  0
    6.6341    2.1467   26.6056 H   0  0  0  1  0  1  0  0  0  0  0  0
    8.9777    3.7957   29.5741 H   0  0  0  1  0  1  0  0  0  0  0  0
    5.4248    0.1675   25.6861 H   0  0  0  1  0  1  0  0  0  0  0  0
    4.3575    1.5882   25.9564 H   0  0  0  1  0  1  0  0  0  0  0  0
    3.1599   -0.3440   26.7292 H   0  0  0  1  0  1  0  0  0  0  0  0
    6.1949   -0.2915   29.0833 H   0  0  0  1  0  1  0  0  0  0  0  0
    5.9981   -2.0444   29.4210 H   0  0  0  1  0  1  0  0  0  0  0  0
    4.8453   -0.6649   31.1368 H   0  0  0  1  0  1  0  0  0  0  0  0
    3.6725   -1.6377   30.1849 H   0  0  0  1  0  1  0  0  0  0  0  0
    3.8686    0.1174   29.8472 H   0  0  0  1  0  1  0  0  0  0  0  0
    6.6537   -1.0750   26.7070 H   0  0  0  1  0  1  0  0  0  0  0  0
    5.3641   -1.9213   25.7884 H   0  0  0  1  0  1  0  0  0  0  0  0
    7.1875   -3.4590   26.3954 H   0  0  0  1  0  1  0  0  0  0  0  0
    5.6555   -3.9161   27.2160 H   0  0  0  1  0  1  0  0  0  0  0  0
    6.9469   -3.0705   28.1341 H   0  0  0  1  0  1  0  0  0  0  0  0
    3.0827   -0.0249   29.2576 H   0  0  0  1  0  1  0  0  0  0  0  0
    2.8266    1.4580   28.2753 H   0  0  0  1  0  1  0  0  0  0  0  0
    4.3473    1.9483   30.1253 H   0  0  0  1  0  1  0  0  0  0  0  0
    5.4199    0.5906   29.6402 H   0  0  0  1  0  1  0  0  0  0  0  0
   13.8173    9.3442   30.4854 H   0  0  0  1  0  1  0  0  0  0  0  0
   15.8912   10.3233   31.4219 H   0  0  0  1  0  1  0  0  0  0  0  0
   17.9418    8.9436   31.6023 H   0  0  0  1  0  1  0  0  0  0  0  0
   17.9207    6.5869   30.8226 H   0  0  0  1  0  1  0  0  0  0  0  0
   15.8389    5.6045   29.8967 H   0  0  0  1  0  1  0  0  0  0  0  0
  1 10  1  0  0  0  0
  1 11  1  0  0  0  0
  1 22  1  0  0  0  0
  1 33  1  0  0  0  0
  2 16  1  0  0  0  0
  2 17  1  0  0  0  0
  2 19  1  0  0  0  0
  2 38  1  0  0  0  0
  3  4  1  0  0  0  0
  3  9  2  0  0  0  0
  3 12  1  0  0  0  0
  4  5  3  0  0  0  0
  5  6  1  0  0  0  0
  6 28  1  0  0  0  0
  6 31  1  0  0  0  0
  6 32  1  0  0  0  0
  7 23  2  0  0  0  0
  7 27  1  0  0  0  0
  7 28  1  0  0  0  0
  8 10  1  0  0  0  0
  8 12  2  0  0  0  0
  8 14  1  0  0  0  0
  9 13  1  0  0  0  0
  9 35  1  0  0  0  0
 10 36  1  0  0  0  0
 10 37  1  0  0  0  0
 11 15  1  0  0  0  0
 11 39  1  0  0  0  0
 11 40  1  0  0  0  0
 12 41  1  0  0  0  0
 13 14  2  0  0  0  0
 13 30  1  0  0  0  0
 14 29  1  0  0  0  0
 15 16  1  0  0  0  0
 15 42  1  0  0  0  0
 15 43  1  0  0  0  0
 16 21  1  0  0  0  0
 16 44  1  0  0  0  0
 17 18  1  0  0  0  0
 17 45  1  0  0  0  0
 17 46  1  0  0  0  0
 18 47  1  0  0  0  0
 18 48  1  0  0  0  0
 18 49  1  0  0  0  0
 19 20  1  0  0  0  0
 19 50  1  0  0  0  0
 19 51  1  0  0  0  0
 20 52  1  0  0  0  0
 20 53  1  0  0  0  0
 20 54  1  0  0  0  0
 21 22  1  0  0  0  0
 21 55  1  0  0  0  0
 21 56  1  0  0  0  0
 22 57  1  0  0  0  0
 22 58  1  0  0  0  0
 23 24  1  0  0  0  0
 23 59  1  0  0  0  0
 24 25  2  0  0  0  0
 24 60  1  0  0  0  0
 25 26  1  0  0  0  0
 25 61  1  0  0  0  0
 26 27  2  0  0  0  0
 26 62  1  0  0  0  0
 27 63  1  0  0  0  0
 29 34  1  0  0  0  0
M  END
> <ConfScore>
-0.452651

$$$$
4agp


 63 65  0  0  0  0  0  0  0  0999 V2000
   90.4980   98.3810  -44.6910 N   0  3  0  1  0  4  0  0  0  0  0  0
   92.0484  102.3740  -44.2389 N   0  3  0  1  0  4  0  0  0  0  0  0
   91.0477   93.5495  -45.0827 C   0  0  0  1  0  3  0  0  0  0  0  0
   91.1130   92.3938  -45.9291 C   0  0  0  1  0  2  0  0  0  0  0  0
   91.1485   91.4585  -46.6727 C   0  0  0  1  0  2  0  0  0  0  0  0
   91.2204   90.2618  -47.5348 C   0  0  0  1  0  4  0  0  0  0  0  0
   91.4374   91.4668  -49.6168 C   0  0  0  1  0  3  0  0  0  0  0  0
   90.4948   95.8988  -44.7838 C   0  0  0  1  0  3  0  0  0  0  0  0
   91.4685   93.4573  -43.7498 C   0  0  0  1  0  3  0  0  0  0  0  0
   89.9050   97.1660  -45.3350 C   0  0  0  1  0  4  0  0  0  0  0  0
   89.5430   99.5450  -44.7170 C   0  0  0  1  0  4  0  0  0  0  0  0
   90.5627   94.7613  -45.5982 C   0  0  0  1  0  3  0  0  0  0  0  0
   91.3956   94.6098  -42.9505 C   0  0  0  1  0  3  0  0  0  0  0  0
   90.9131   95.8428  -43.4281 C   0  0  0  1  0  3  0  0  0  0  0  0
   90.1750  100.7310  -44.0050 C   0  0  0  1  0  4  0  0  0  0  0  0
   91.4300  101.0810  -44.8020 C   0  0  0  1  0  4  0  0  0  0  0  0
   93.2823  102.8116  -45.0380 C   0  0  0  1  0  4  0  0  0  0  0  0
   93.7744  104.1248  -44.4598 C   0  0  0  1  0  4  0  0  0  0  0  0
   92.4086  102.3309  -42.7598 C   0  0  0  1  0  4  0  0  0  0  0  0
   91.2473  101.9299  -41.8604 C   0  0  0  1  0  4  0  0  0  0  0  0
   92.4510   99.9400  -44.6950 C   0  0  0  1  0  4  0  0  0  0  0  0
   91.8210   98.7070  -45.3220 C   0  0  0  1  0  4  0  0  0  0  0  0
   90.9063   91.6602  -50.8950 C   0  0  0  1  0  3  0  0  0  0  0  0
   91.5054   92.5560  -51.7838 C   0  0  0  1  0  3  0  0  0  0  0  0
   92.6420   93.2636  -51.3980 C   0  0  0  1  0  3  0  0  0  0  0  0
   93.1821   93.0718  -50.1249 C   0  0  0  1  0  3  0  0  0  0  0  0
   92.5773   92.1767  -49.2352 C   0  0  0  1  0  3  0  0  0  0  0  0
   90.7486   90.5572  -48.8518 O   0  0  0  1  0  2  0  0  0  0  0  0
   90.8499   96.9370  -42.6230 O   0  0  0  1  0  2  0  0  0  0  0  0
   92.0414   94.4869  -40.9337 I   0  0  0  1  0  1  0  0  0  0  0  0
   90.5997   89.4649  -47.0990 H   0  0  0  1  0  1  0  0  0  0  0  0
   92.2650   89.9209  -47.5935 H   0  0  0  1  0  1  0  0  0  0  0  0
   90.6654   98.1804  -43.7172 H   0  0  0  1  0  1  0  0  0  0  0  0
   91.1007   97.7077  -43.1181 H   0  0  0  1  0  1  0  0  0  0  0  0
   91.8400   92.5230  -43.3467 H   0  0  0  1  0  1  0  0  0  0  0  0
   90.0974   97.2069  -46.4175 H   0  0  0  1  0  1  0  0  0  0  0  0
   88.8209   97.1614  -45.1551 H   0  0  0  1  0  1  0  0  0  0  0  0
   91.3476  103.0924  -44.3468 H   0  0  0  1  0  1  0  0  0  0  0  0
   88.6101   99.2656  -44.2072 H   0  0  0  1  0  1  0  0  0  0  0  0
   89.3242   99.8170  -45.7597 H   0  0  0  1  0  1  0  0  0  0  0  0
   90.2395   94.8172  -46.6307 H   0  0  0  1  0  1  0  0  0  0  0  0
   90.4414  100.4592  -42.9725 H   0  0  0  1  0  1  0  0  0  0  0  0
   89.4798  101.5841  -43.9926 H   0  0  0  1  0  1  0  0  0  0  0  0
   91.1613  101.2320  -45.8577 H   0  0  0  1  0  1  0  0  0  0  0  0
   93.0130  102.9476  -46.0960 H   0  0  0  1  0  1  0  0  0  0  0  0
   94.0704  102.0493  -44.9556 H   0  0  0  1  0  1  0  0  0  0  0  0
   94.0218  103.9888  -43.3963 H   0  0  0  1  0  1  0  0  0  0  0  0
   92.9863  104.8868  -44.5578 H   0  0  0  1  0  1  0  0  0  0  0  0
   94.6727  104.4529  -45.0056 H   0  0  0  1  0  1  0  0  0  0  0  0
   92.7539  103.3296  -42.4566 H   0  0  0  1  0  1  0  0  0  0  0  0
   93.2217  101.6040  -42.6207 H   0  0  0  1  0  1  0  0  0  0  0  0
   91.5861  101.9034  -40.8141 H   0  0  0  1  0  1  0  0  0  0  0  0
   90.8836  100.9341  -42.1544 H   0  0  0  1  0  1  0  0  0  0  0  0
   90.4327  102.6624  -41.9654 H   0  0  0  1  0  1  0  0  0  0  0  0
   92.6881   99.7451  -43.6375 H   0  0  0  1  0  1  0  0  0  0  0  0
   93.3710  100.2073  -45.2341 H   0  0  0  1  0  1  0  0  0  0  0  0
   91.6686   98.8909  -46.3957 H   0  0  0  1  0  1  0  0  0  0  0  0
   92.5006   97.8518  -45.1886 H   0  0  0  1  0  1  0  0  0  0  0  0
   90.0221   91.1115  -51.1990 H   0  0  0  1  0  1  0  0  0  0  0  0
   91.0874   92.6995  -52.7739 H   0  0  0  1  0  1  0  0  0  0  0  0
   93.1060   93.9616  -52.0859 H   0  0  0  1  0  1  0  0  0  0  0  0
   94.0715   93.6155  -49.8253 H   0  0  0  1  0  1  0  0  0  0  0  0
   92.9956   92.0341  -48.2448 H   0  0  0  1  0  1  0  0  0  0  0  0
  1 10  1  0  0  0  0
  1 11  1  0  0  0  0
  1 22  1  0  0  0  0
  1 33  1  0  0  0  0
  2 16  1  0  0  0  0
  2 17  1  0  0  0  0
  2 19  1  0  0  0  0
  2 38  1  0  0  0  0
  3  4  1  0  0  0  0
  3  9  2  0  0  0  0
  3 12  1  0  0  0  0
  4  5  3  0  0  0  0
  5  6  1  0  0  0  0
  6 28  1  0  0  0  0
  6 31  1  0  0  0  0
  6 32  1  0  0  0  0
  7 23  2  0  0  0  0
  7 27  1  0  0  0  0
  7 28  1  0  0  0  0
  8 10  1  0  0  0  0
  8 12  2  0  0  0  0
  8 14  1  0  0  0  0
  9 13  1  0  0  0  0
  9 35  1  0  0  0  0
 10 36  1  0  0  0  0
 10 37  1  0  0  0  0
 11 15  1  0  0  0  0
 11 39  1  0  0  0  0
 11 40  1  0  0  0  0
 12 41  1  0  0  0  0
 13 14  2  0  0  0  0
 13 30  1  0  0  0  0
 14 29  1  0  0  0  0
 15 16  1  0  0  0  0
 15 42  1  0  0  0  0
 15 43  1  0  0  0  0
 16 21  1  0  0  0  0
 16 44  1  0  0  0  0
 17 18  1  0  0  0  0
 17 45  1  0  0  0  0
 17 46  1  0  0  0  0
 18 47  1  0  0  0  0
 18 48  1  0  0  0  0
 18 49  1  0  0  0  0
 19 20  1  0  0  0  0
 19 50  1  0  0  0  0
 19 51  1  0  0  0  0
 20 52  1  0  0  0  0
 20 53  1  0  0  0  0
 20 54  1  0  0  0  0
 21 22  1  0  0  0  0
 21 55  1  0  0  0  0
 21 56  1  0  0  0  0
 22 57  1  0  0  0  0
 22 58  1  0  0  0  0
 23 24  1  0  0  0  0
 23 59  1  0  0  0  0
 24 25  2  0  0  0  0
 24 60  1  0  0  0  0
 25 26  1  0  0  0  0
 25 61  1  0  0  0  0
 26 27  2  0  0  0  0
 26 62  1  0  0  0  0
 27 63  1  0  0  0  0
 29 34  1  0  0  0  0
M  END
> <ConfScore>
-0.452572

$$$$
4agp


 63 65  0  0  0  0  0  0  0  0999 V2000
   90.4980   98.3810  -44.6910 N   0  3  0  1  0  4  0  0  0  0  0  0
   92.0484  102.3740  -44.2389 N   0  3  0  1  0  4  0  0  0  0  0  0
   87.8949   97.9983  -48.4519 C   0  0  0  1  0  3  0  0  0  0  0  0
   86.5650   98.4254  -48.7766 C   0  0  0  1  0  2  0  0  0  0  0  0
   85.4459   98.7826  -48.9975 C   0  0  0  1  0  2  0  0  0  0  0  0
   84.0793   99.2220  -49.3440 C   0  0  0  1  0  4  0  0  0  0  0  0
   81.9970   99.8464  -48.2916 C   0  0  0  1  0  3  0  0  0  0  0  0
   89.5565   97.4125  -46.7755 C   0  0  0  1  0  3  0  0  0  0  0  0
   88.8155   97.7559  -49.4795 C   0  0  0  1  0  3  0  0  0  0  0  0
   89.9050   97.1660  -45.3350 C   0  0  0  1  0  4  0  0  0  0  0  0
   89.5430   99.5450  -44.7170 C   0  0  0  1  0  4  0  0  0  0  0  0
   88.2607   97.8274  -47.1079 C   0  0  0  1  0  3  0  0  0  0  0  0
   90.1106   97.3437  -49.1255 C   0  0  0  1  0  3  0  0  0  0  0  0
   90.5162   97.1579  -47.7905 C   0  0  0  1  0  3  0  0  0  0  0  0
   90.1750  100.7310  -44.0050 C   0  0  0  1  0  4  0  0  0  0  0  0
   91.4300  101.0810  -44.8020 C   0  0  0  1  0  4  0  0  0  0  0  0
   93.2591  102.8328  -45.0612 C   0  0  0  1  0  4  0  0  0  0  0  0
   93.7972  104.1051  -44.4346 C   0  0  0  1  0  4  0  0  0  0  0  0
   92.4430  102.3185  -42.7690 C   0  0  0  1  0  4  0  0  0  0  0  0
   91.2654  102.0998  -41.8289 C   0  0  0  1  0  4  0  0  0  0  0  0
   92.4510   99.9400  -44.6950 C   0  0  0  1  0  4  0  0  0  0  0  0
   91.8210   98.7070  -45.3220 C   0  0  0  1  0  4  0  0  0  0  0  0
   81.3225  100.0022  -47.0775 C   0  0  0  1  0  3  0  0  0  0  0  0
   79.9940  100.4331  -47.0544 C   0  0  0  1  0  3  0  0  0  0  0  0
   79.3315  100.7099  -48.2485 C   0  0  0  1  0  3  0  0  0  0  0  0
   79.9963  100.5512  -49.4659 C   0  0  0  1  0  3  0  0  0  0  0  0
   81.3286  100.1233  -49.4856 C   0  0  0  1  0  3  0  0  0  0  0  0
   83.2951   99.4155  -48.1642 O   0  0  0  1  0  2  0  0  0  0  0  0
   91.7772   96.7507  -47.4850 O   0  0  0  1  0  2  0  0  0  0  0  0
   91.5181   96.9852  -50.6715 I   0  0  0  1  0  1  0  0  0  0  0  0
   83.6023   98.4560  -49.9733 H   0  0  0  1  0  1  0  0  0  0  0  0
   84.1346  100.1698  -49.9003 H   0  0  0  1  0  1  0  0  0  0  0  0
   90.6654   98.1804  -43.7172 H   0  0  0  1  0  1  0  0  0  0  0  0
   92.0806   97.2152  -46.7142 H   0  0  0  1  0  1  0  0  0  0  0  0
   88.5363   97.8829  -50.5184 H   0  0  0  1  0  1  0  0  0  0  0  0
   88.9912   96.8846  -44.7907 H   0  0  0  1  0  1  0  0  0  0  0  0
   90.6322   96.3439  -45.2806 H   0  0  0  1  0  1  0  0  0  0  0  0
   91.3382  103.0864  -44.3227 H   0  0  0  1  0  1  0  0  0  0  0  0
   88.6101   99.2656  -44.2072 H   0  0  0  1  0  1  0  0  0  0  0  0
   89.3242   99.8170  -45.7597 H   0  0  0  1  0  1  0  0  0  0  0  0
   87.5375   98.0174  -46.3239 H   0  0  0  1  0  1  0  0  0  0  0  0
   90.4414  100.4592  -42.9725 H   0  0  0  1  0  1  0  0  0  0  0  0
   89.4798  101.5841  -43.9926 H   0  0  0  1  0  1  0  0  0  0  0  0
   91.1613  101.2320  -45.8577 H   0  0  0  1  0  1  0  0  0  0  0  0
   92.9527  103.0291  -46.0994 H   0  0  0  1  0  1  0  0  0  0  0  0
   94.0355  102.0541  -45.0494 H   0  0  0  1  0  1  0  0  0  0  0  0
   94.6800  104.4467  -44.9957 H   0  0  0  1  0  1  0  0  0  0  0  0
   94.0815  103.9074  -43.3898 H   0  0  0  1  0  1  0  0  0  0  0  0
   93.0209  104.8854  -44.4628 H   0  0  0  1  0  1  0  0  0  0  0  0
   92.9282  103.2684  -42.5030 H   0  0  0  1  0  1  0  0  0  0  0  0
   93.1548  101.4920  -42.6308 H   0  0  0  1  0  1  0  0  0  0  0  0
   90.7739  101.1462  -42.0725 H   0  0  0  1  0  1  0  0  0  0  0  0
   90.5464  102.9243  -41.9451 H   0  0  0  1  0  1  0  0  0  0  0  0
   91.6264  102.0733  -40.7896 H   0  0  0  1  0  1  0  0  0  0  0  0
   92.6881   99.7451  -43.6375 H   0  0  0  1  0  1  0  0  0  0  0  0
   93.3710  100.2073  -45.2341 H   0  0  0  1  0  1  0  0  0  0  0  0
   91.6686   98.8909  -46.3957 H   0  0  0  1  0  1  0  0  0  0  0  0
   92.5006   97.8518  -45.1886 H   0  0  0  1  0  1  0  0  0  0  0  0
   81.8345   99.7879  -46.1462 H   0  0  0  1  0  1  0  0  0  0  0  0
   79.4779  100.5506  -46.1081 H   0  0  0  1  0  1  0  0  0  0  0  0
   78.3013  101.0476  -48.2316 H   0  0  0  1  0  1  0  0  0  0  0  0
   79.4802  100.7584  -50.3970 H   0  0  0  1  0  1  0  0  0  0  0  0
   81.8444  100.0066  -50.4324 H   0  0  0  1  0  1  0  0  0  0  0  0
  1 10  1  0  0  0  0
  1 11  1  0  0  0  0
  1 22  1  0  0  0  0
  1 33  1  0  0  0  0
  2 16  1  0  0  0  0
  2 17  1  0  0  0  0
  2 19  1  0  0  0  0
  2 38  1  0  0  0  0
  3  4  1  0  0  0  0
  3  9  2  0  0  0  0
  3 12  1  0  0  0  0
  4  5  3  0  0  0  0
  5  6  1  0  0  0  0
  6 28  1  0  0  0  0
  6 31  1  0  0  0  0
  6 32  1  0  0  0  0
  7 23  2  0  0  0  0
  7 27  1  0  0  0  0
  7 28  1  0  0  0  0
  8 10  1  0  0  0  0
  8 12  2  0  0  0  0
  8 14  1  0  0  0  0
  9 13  1  0  0  0  0
  9 35  1  0  0  0  0
 10 36  1  0  0  0  0
 10 37  1  0  0  0  0
 11 15  1  0  0  0  0
 11 39  1  0  0  0  0
 11 40  1  0  0  0  0
 12 41  1  0  0  0  0
 13 14  2  0  0  0  0
 13 30  1  0  0  0  0
 14 29  1  0  0  0  0
 15 16  1  0  0  0  0
 15 42  1  0  0  0  0
 15 43  1  0  0  0  0
 16 21  1  0  0  0  0
 16 44  1  0  0  0  0
 17 18  1  0  0  0  0
 17 45  1  0  0  0  0
 17 46  1  0  0  0  0
 18 47  1  0  0  0  0
 18 48  1  0  0  0  0
 18 49  1  0  0  0  0
 19 20  1  0  0  0  0
 19 50  1  0  0  0  0
 19 51  1  0  0  0  0
 20 52  1  0  0  0  0
 20 53  1  0  0  0  0
 20 54  1  0  0  0  0
 21 22  1  0  0  0  0
 21 55  1  0  0  0  0
 21 56  1  0  0  0  0
 22 57  1  0  0  0  0
 22 58  1  0  0  0  0
 23 24  1  0  0  0  0
 23 59  1  0  0  0  0
 24 25  2  0  0  0  0
 24 60  1  0  0  0  0
 25 26  1  0  0  0  0
 25 61  1  0  0  0  0
 26 27  2  0  0  0  0
 26 62  1  0  0  0  0
 27 63  1  0  0  0  0
 29 34  1  0  0  0  0
M  END
> <ConfScore>
-0.44761

$$$$
4agp


 63 65  0  0  0  0  0  0  0  0999 V2000
   90.4980   98.3810  -44.6910 N   0  3  0  1  0  4  0  0  0  0  0  0
   92.0484  102.3740  -44.2389 N   0  3  0  1  0  4  0  0  0  0  0  0
   90.6114   97.8989  -48.9972 C   0  0  0  1  0  3  0  0  0  0  0  0
   91.7475   98.1840  -49.8244 C   0  0  0  1  0  2  0  0  0  0  0  0
   92.6662   98.4554  -50.5394 C   0  0  0  1  0  2  0  0  0  0  0  0
   93.8428   98.7407  -51.3848 C   0  0  0  1  0  4  0  0  0  0  0  0
   94.5174  100.1432  -53.2319 C   0  0  0  1  0  3  0  0  0  0  0  0
   89.6943   97.3632  -46.8095 C   0  0  0  1  0  3  0  0  0  0  0  0
   89.3300   97.8768  -49.5630 C   0  0  0  1  0  3  0  0  0  0  0  0
   89.9050   97.1660  -45.3350 C   0  0  0  1  0  4  0  0  0  0  0  0
   89.5430   99.5450  -44.7170 C   0  0  0  1  0  4  0  0  0  0  0  0
   90.7945   97.6449  -47.6293 C   0  0  0  1  0  3  0  0  0  0  0  0
   88.2403   97.5892  -48.7249 C   0  0  0  1  0  3  0  0  0  0  0  0
   88.3810   97.3319  -47.3483 C   0  0  0  1  0  3  0  0  0  0  0  0
   90.1750  100.7310  -44.0050 C   0  0  0  1  0  4  0  0  0  0  0  0
   91.4300  101.0810  -44.8020 C   0  0  0  1  0  4  0  0  0  0  0  0
   93.2950  102.7996  -45.0245 C   0  0  0  1  0  4  0  0  0  0  0  0
   92.8880  103.0157  -46.4697 C   0  0  0  1  0  4  0  0  0  0  0  0
   92.3890  102.3382  -42.7550 C   0  0  0  1  0  4  0  0  0  0  0  0
   91.2022  101.9964  -41.8645 C   0  0  0  1  0  4  0  0  0  0  0  0
   92.4510   99.9400  -44.6950 C   0  0  0  1  0  4  0  0  0  0  0  0
   91.8210   98.7070  -45.3220 C   0  0  0  1  0  4  0  0  0  0  0  0
   94.1074  101.1159  -54.1479 C   0  0  0  1  0  3  0  0  0  0  0  0
   95.0034  101.6244  -55.0911 C   0  0  0  1  0  3  0  0  0  0  0  0
   96.3170  101.1605  -55.1237 C   0  0  0  1  0  3  0  0  0  0  0  0
   96.7329  100.1847  -54.2159 C   0  0  0  1  0  3  0  0  0  0  0  0
   95.8340   99.6803  -53.2693 C   0  0  0  1  0  3  0  0  0  0  0  0
   93.5331   99.7340  -52.3655 O   0  0  0  1  0  2  0  0  0  0  0  0
   87.3019   97.0639  -46.5653 O   0  0  0  1  0  2  0  0  0  0  0  0
   86.2959   97.5405  -49.5715 I   0  0  0  1  0  1  0  0  0  0  0  0
   94.1550   97.8163  -51.8930 H   0  0  0  1  0  1  0  0  0  0  0  0
   94.6646   99.1043  -50.7498 H   0  0  0  1  0  1  0  0  0  0  0  0
   90.6654   98.1804  -43.7172 H   0  0  0  1  0  1  0  0  0  0  0  0
   87.5262   96.3841  -45.9412 H   0  0  0  1  0  1  0  0  0  0  0  0
   89.1837   98.0760  -50.6177 H   0  0  0  1  0  1  0  0  0  0  0  0
   88.9352   96.9500  -44.8625 H   0  0  0  1  0  1  0  0  0  0  0  0
   90.5844   96.3157  -45.1834 H   0  0  0  1  0  1  0  0  0  0  0  0
   91.3532  103.0956  -44.3604 H   0  0  0  1  0  1  0  0  0  0  0  0
   88.6101   99.2656  -44.2072 H   0  0  0  1  0  1  0  0  0  0  0  0
   89.3242   99.8170  -45.7597 H   0  0  0  1  0  1  0  0  0  0  0  0
   91.7913   97.6667  -47.2055 H   0  0  0  1  0  1  0  0  0  0  0  0
   90.4414  100.4592  -42.9725 H   0  0  0  1  0  1  0  0  0  0  0  0
   89.4798  101.5841  -43.9926 H   0  0  0  1  0  1  0  0  0  0  0  0
   91.1613  101.2320  -45.8577 H   0  0  0  1  0  1  0  0  0  0  0  0
   94.0601  102.0113  -44.9665 H   0  0  0  1  0  1  0  0  0  0  0  0
   93.6988  103.7334  -44.6074 H   0  0  0  1  0  1  0  0  0  0  0  0
   92.1073  103.7895  -46.5203 H   0  0  0  1  0  1  0  0  0  0  0  0
   92.4976  102.0742  -46.8854 H   0  0  0  1  0  1  0  0  0  0  0  0
   93.7634  103.3401  -47.0535 H   0  0  0  1  0  1  0  0  0  0  0  0
   92.7701  103.3267  -42.4616 H   0  0  0  1  0  1  0  0  0  0  0  0
   93.1709  101.5818  -42.5956 H   0  0  0  1  0  1  0  0  0  0  0  0
   91.5237  101.9879  -40.8124 H   0  0  0  1  0  1  0  0  0  0  0  0
   90.8130  101.0045  -42.1382 H   0  0  0  1  0  1  0  0  0  0  0  0
   90.4120  102.7500  -42.0021 H   0  0  0  1  0  1  0  0  0  0  0  0
   92.6881   99.7451  -43.6375 H   0  0  0  1  0  1  0  0  0  0  0  0
   93.3710  100.2073  -45.2341 H   0  0  0  1  0  1  0  0  0  0  0  0
   91.6686   98.8909  -46.3957 H   0  0  0  1  0  1  0  0  0  0  0  0
   92.5006   97.8518  -45.1886 H   0  0  0  1  0  1  0  0  0  0  0  0
   93.0863  101.4794  -54.1257 H   0  0  0  1  0  1  0  0  0  0  0  0
   94.6769  102.3782  -55.7986 H   0  0  0  1  0  1  0  0  0  0  0  0
   97.0143  101.5568  -55.8534 H   0  0  0  1  0  1  0  0  0  0  0  0
   97.7526   99.8164  -54.2446 H   0  0  0  1  0  1  0  0  0  0  0  0
   96.1614   98.9266  -52.5616 H   0  0  0  1  0  1  0  0  0  0  0  0
  1 10  1  0  0  0  0
  1 11  1  0  0  0  0
  1 22  1  0  0  0  0
  1 33  1  0  0  0  0
  2 16  1  0  0  0  0
  2 17  1  0  0  0  0
  2 19  1  0  0  0  0
  2 38  1  0  0  0  0
  3  4  1  0  0  0  0
  3  9  2  0  0  0  0
  3 12  1  0  0  0  0
  4  5  3  0  0  0  0
  5  6  1  0  0  0  0
  6 28  1  0  0  0  0
  6 31  1  0  0  0  0
  6 32  1  0  0  0  0
  7 23  2  0  0  0  0
  7 27  1  0  0  0  0
  7 28  1  0  0  0  0
  8 10  1  0  0  0  0
  8 12  2  0  0  0  0
  8 14  1  0  0  0  0
  9 13  1  0  0  0  0
  9 35  1  0  0  0  0
 10 36  1  0  0  0  0
 10 37  1  0  0  0  0
 11 15  1  0  0  0  0
 11 39  1  0  0  0  0
 11 40  1  0  0  0  0
 12 41  1  0  0  0  0
 13 14  2  0  0  0  0
 13 30  1  0  0  0  0
 14 29  1  0  0  0  0
 15 16  1  0  0  0  0
 15 42  1  0  0  0  0
 15 43  1  0  0  0  0
 16 21  1  0  0  0  0
 16 44  1  0  0  0  0
 17 18  1  0  0  0  0
 17 45  1  0  0  0  0
 17 46  1  0  0  0  0
 18 47  1  0  0  0  0
 18 48  1  0  0  0  0
 18 49  1  0  0  0  0
 19 20  1  0  0  0  0
 19 50  1  0  0  0  0
 19 51  1  0  0  0  0
 20 52  1  0  0  0  0
 20 53  1  0  0  0  0
 20 54  1  0  0  0  0
 21 22  1  0  0  0  0
 21 55  1  0  0  0  0
 21 56  1  0  0  0  0
 22 57  1  0  0  0  0
 22 58  1  0  0  0  0
 23 24  1  0  0  0  0
 23 59  1  0  0  0  0
 24 25  2  0  0  0  0
 24 60  1  0  0  0  0
 25 26  1  0  0  0  0
 25 61  1  0  0  0  0
 26 27  2  0  0  0  0
 26 62  1  0  0  0  0
 27 63  1  0  0  0  0
 29 34  1  0  0  0  0
M  END
> <ConfScore>
-0.444769

$$$$
4agp


 63 65  0  0  0  0  0  0  0  0999 V2000
  124.0460  107.7170  -44.7230 N   0  3  0  1  0  4  0  0  0  0  0  0
  125.5080  111.7370  -44.1130 N   0  3  0  1  0  4  0  0  0  0  0  0
  125.0505  103.3204  -44.1966 C   0  0  0  1  0  3  0  0  0  0  0  0
  124.8442  102.4140  -43.1047 C   0  0  0  1  0  2  0  0  0  0  0  0
  124.6345  101.6885  -42.1780 C   0  0  0  1  0  2  0  0  0  0  0  0
  124.4313  100.7480  -41.0579 C   0  0  0  1  0  4  0  0  0  0  0  0
  122.0707  100.9353  -40.5823 C   0  0  0  1  0  3  0  0  0  0  0  0
  124.3930  105.3401  -45.3733 C   0  0  0  1  0  3  0  0  0  0  0  0
  126.0468  103.0709  -45.1455 C   0  0  0  1  0  3  0  0  0  0  0  0
  123.4970  106.5410  -45.4510 C   0  0  0  1  0  4  0  0  0  0  0  0
  123.0770  108.8710  -44.7550 C   0  0  0  1  0  4  0  0  0  0  0  0
  124.2184  104.4496  -44.3089 C   0  0  0  1  0  3  0  0  0  0  0  0
  126.1946  103.9812  -46.1993 C   0  0  0  1  0  3  0  0  0  0  0  0
  125.3973  105.1247  -46.3531 C   0  0  0  1  0  3  0  0  0  0  0  0
  123.6820  109.9950  -43.9370 C   0  0  0  1  0  4  0  0  0  0  0  0
  124.9420  110.4210  -44.6780 C   0  0  0  1  0  4  0  0  0  0  0  0
  124.4285  112.8207  -44.0004 C   0  0  0  1  0  4  0  0  0  0  0  0
  125.0541  114.0406  -43.3511 C   0  0  0  1  0  4  0  0  0  0  0  0
  126.7022  112.3069  -44.8670 C   0  0  0  1  0  4  0  0  0  0  0  0
  127.8836  111.3502  -44.9514 C   0  0  0  1  0  4  0  0  0  0  0  0
  125.9830  109.2940  -44.5690 C   0  0  0  1  0  4  0  0  0  0  0  0
  125.3930  108.0860  -45.2720 C   0  0  0  1  0  4  0  0  0  0  0  0
  121.9449  100.2647  -41.8021 C   0  0  0  1  0  3  0  0  0  0  0  0
  120.6834   99.9398  -42.3060 C   0  0  0  1  0  3  0  0  0  0  0  0
  119.5384  100.2859  -41.5914 C   0  0  0  1  0  3  0  0  0  0  0  0
  119.6552  100.9611  -40.3749 C   0  0  0  1  0  3  0  0  0  0  0  0
  120.9207  101.2815  -39.8705 C   0  0  0  1  0  3  0  0  0  0  0  0
  123.3681  101.1913  -40.2108 O   0  0  0  1  0  2  0  0  0  0  0  0
  125.5459  105.9962  -47.3864 O   0  0  0  1  0  2  0  0  0  0  0  0
  127.7170  103.6139  -47.6301 I   0  0  0  1  0  1  0  0  0  0  0  0
  125.3584  100.6816  -40.4694 H   0  0  0  1  0  1  0  0  0  0  0  0
  124.1818   99.7549  -41.4606 H   0  0  0  1  0  1  0  0  0  0  0  0
  124.1710  107.4530  -43.7580 H   0  0  0  1  0  1  0  0  0  0  0  0
  126.2574  105.7055  -47.9443 H   0  0  0  1  0  1  0  0  0  0  0  0
  126.6851  102.1990  -45.0689 H   0  0  0  1  0  1  0  0  0  0  0  0
  122.5213  106.2813  -45.0139 H   0  0  0  1  0  1  0  0  0  0  0  0
  123.3642  106.8120  -46.5077 H   0  0  0  1  0  1  0  0  0  0  0  0
  125.8267  111.5289  -43.1782 H   0  0  0  1  0  1  0  0  0  0  0  0
  122.1150  108.5650  -44.3200 H   0  0  0  1  0  1  0  0  0  0  0  0
  122.9220  109.2020  -45.7920 H   0  0  0  1  0  1  0  0  0  0  0  0
  123.4439  104.6289  -43.5728 H   0  0  0  1  0  1  0  0  0  0  0  0
  123.9340  109.6410  -42.9260 H   0  0  0  1  0  1  0  0  0  0  0  0
  122.9770  110.8370  -43.8650 H   0  0  0  1  0  1  0  0  0  0  0  0
  124.6940  110.5770  -45.7380 H   0  0  0  1  0  1  0  0  0  0  0  0
  123.5954  112.4551  -43.3818 H   0  0  0  1  0  1  0  0  0  0  0  0
  124.0549  113.0814  -45.0011 H   0  0  0  1  0  1  0  0  0  0  0  0
  125.9002  114.3894  -43.9622 H   0  0  0  1  0  1  0  0  0  0  0  0
  125.4135  113.7767  -42.3448 H   0  0  0  1  0  1  0  0  0  0  0  0
  124.3029  114.8420  -43.2745 H   0  0  0  1  0  1  0  0  0  0  0  0
  127.0322  113.2221  -44.3552 H   0  0  0  1  0  1  0  0  0  0  0  0
  126.3825  112.5538  -45.8896 H   0  0  0  1  0  1  0  0  0  0  0  0
  128.7033  111.8280  -45.5084 H   0  0  0  1  0  1  0  0  0  0  0  0
  127.5738  110.4308  -45.4700 H   0  0  0  1  0  1  0  0  0  0  0  0
  128.2255  111.0997  -43.9358 H   0  0  0  1  0  1  0  0  0  0  0  0
  126.1780  109.0590  -43.5110 H   0  0  0  1  0  1  0  0  0  0  0  0
  126.9210  109.5950  -45.0570 H   0  0  0  1  0  1  0  0  0  0  0  0
  125.2890  108.3140  -46.3430 H   0  0  0  1  0  1  0  0  0  0  0  0
  126.0750  107.2320  -45.1430 H   0  0  0  1  0  1  0  0  0  0  0  0
  122.8334   99.9936  -42.3611 H   0  0  0  1  0  1  0  0  0  0  0  0
  120.5947   99.4202  -43.2535 H   0  0  0  1  0  1  0  0  0  0  0  0
  118.5587  100.0314  -41.9800 H   0  0  0  1  0  1  0  0  0  0  0  0
  118.7651  101.2386  -39.8207 H   0  0  0  1  0  1  0  0  0  0  0  0
  121.0086  101.8008  -38.9225 H   0  0  0  1  0  1  0  0  0  0  0  0
  1 10  1  0  0  0  0
  1 11  1  0  0  0  0
  1 22  1  0  0  0  0
  1 33  1  0  0  0  0
  2 16  1  0  0  0  0
  2 17  1  0  0  0  0
  2 19  1  0  0  0  0
  2 38  1  0  0  0  0
  3  4  1  0  0  0  0
  3  9  2  0  0  0  0
  3 12  1  0  0  0  0
  4  5  3  0  0  0  0
  5  6  1  0  0  0  0
  6 28  1  0  0  0  0
  6 31  1  0  0  0  0
  6 32  1  0  0  0  0
  7 23  2  0  0  0  0
  7 27  1  0  0  0  0
  7 28  1  0  0  0  0
  8 10  1  0  0  0  0
  8 12  2  0  0  0  0
  8 14  1  0  0  0  0
  9 13  1  0  0  0  0
  9 35  1  0  0  0  0
 10 36  1  0  0  0  0
 10 37  1  0  0  0  0
 11 15  1  0  0  0  0
 11 39  1  0  0  0  0
 11 40  1  0  0  0  0
 12 41  1  0  0  0  0
 13 14  2  0  0  0  0
 13 30  1  0  0  0  0
 14 29  1  0  0  0  0
 15 16  1  0  0  0  0
 15 42  1  0  0  0  0
 15 43  1  0  0  0  0
 16 21  1  0  0  0  0
 16 44  1  0  0  0  0
 17 18  1  0  0  0  0
 17 45  1  0  0  0  0
 17 46  1  0  0  0  0
 18 47  1  0  0  0  0
 18 48  1  0  0  0  0
 18 49  1  0  0  0  0
 19 20  1  0  0  0  0
 19 50  1  0  0  0  0
 19 51  1  0  0  0  0
 20 52  1  0  0  0  0
 20 53  1  0  0  0  0
 20 54  1  0  0  0  0
 21 22  1  0  0  0  0
 21 55  1  0  0  0  0
 21 56  1  0  0  0  0
 22 57  1  0  0  0  0
 22 58  1  0  0  0  0
 23 24  1  0  0  0  0
 23 59  1  0  0  0  0
 24 25  2  0  0  0  0
 24 60  1  0  0  0  0
 25 26  1  0  0  0  0
 25 61  1  0  0  0  0
 26 27  2  0  0  0  0
 26 62  1  0  0  0  0
 27 63  1  0  0  0  0
 29 34  1  0  0  0  0
M  END
> <ConfScore>
-0.440159

$$$$
4agp


 63 65  0  0  0  0  0  0  0  0999 V2000
  124.0460  107.7170  -44.7230 N   0  3  0  1  0  4  0  0  0  0  0  0
  125.5080  111.7370  -44.1130 N   0  3  0  1  0  4  0  0  0  0  0  0
  124.6656  102.9364  -45.4277 C   0  0  0  1  0  3  0  0  0  0  0  0
  124.7735  101.8643  -46.3740 C   0  0  0  1  0  2  0  0  0  0  0  0
  124.8435  101.0014  -47.1982 C   0  0  0  1  0  2  0  0  0  0  0  0
  124.9594   99.8903  -48.1639 C   0  0  0  1  0  4  0  0  0  0  0  0
  125.3090  101.0091  -50.2757 C   0  0  0  1  0  3  0  0  0  0  0  0
  124.0568  105.2395  -44.9573 C   0  0  0  1  0  3  0  0  0  0  0  0
  125.0804  102.7574  -44.1045 C   0  0  0  1  0  3  0  0  0  0  0  0
  123.4970  106.5410  -45.4510 C   0  0  0  1  0  4  0  0  0  0  0  0
  123.0770  108.8710  -44.7550 C   0  0  0  1  0  4  0  0  0  0  0  0
  124.1586  104.1758  -45.8600 C   0  0  0  1  0  3  0  0  0  0  0  0
  124.9665  103.8424  -43.2266 C   0  0  0  1  0  3  0  0  0  0  0  0
  124.4617  105.0952  -43.6044 C   0  0  0  1  0  3  0  0  0  0  0  0
  123.6820  109.9950  -43.9370 C   0  0  0  1  0  4  0  0  0  0  0  0
  124.9420  110.4210  -44.6780 C   0  0  0  1  0  4  0  0  0  0  0  0
  126.7493  112.2022  -44.8845 C   0  0  0  1  0  4  0  0  0  0  0  0
  127.1767  113.5440  -44.3208 C   0  0  0  1  0  4  0  0  0  0  0  0
  125.8303  111.7191  -42.6247 C   0  0  0  1  0  4  0  0  0  0  0  0
  126.4097  113.0298  -42.1100 C   0  0  0  1  0  4  0  0  0  0  0  0
  125.9830  109.2940  -44.5690 C   0  0  0  1  0  4  0  0  0  0  0  0
  125.3930  108.0860  -45.2720 C   0  0  0  1  0  4  0  0  0  0  0  0
  126.5595  101.2976  -49.7222 C   0  0  0  1  0  3  0  0  0  0  0  0
  127.5043  102.0280  -50.4468 C   0  0  0  1  0  3  0  0  0  0  0  0
  127.2018  102.4757  -51.7312 C   0  0  0  1  0  3  0  0  0  0  0  0
  125.9527  102.1966  -52.2890 C   0  0  0  1  0  3  0  0  0  0  0  0
  125.0098  101.4610  -51.5622 C   0  0  0  1  0  3  0  0  0  0  0  0
  124.4809  100.2863  -49.4517 O   0  0  0  1  0  2  0  0  0  0  0  0
  124.3645  106.1435  -42.7436 O   0  0  0  1  0  2  0  0  0  0  0  0
  125.5788  103.5676  -41.2143 I   0  0  0  1  0  1  0  0  0  0  0  0
  124.3659   99.0364  -47.8048 H   0  0  0  1  0  1  0  0  0  0  0  0
  126.0154   99.5923  -48.2470 H   0  0  0  1  0  1  0  0  0  0  0  0
  124.1710  107.4530  -43.7580 H   0  0  0  1  0  1  0  0  0  0  0  0
  124.6750  105.8775  -41.8864 H   0  0  0  1  0  1  0  0  0  0  0  0
  125.4791  101.8081  -43.7678 H   0  0  0  1  0  1  0  0  0  0  0  0
  122.4046  106.5262  -45.3215 H   0  0  0  1  0  1  0  0  0  0  0  0
  123.7377  106.6443  -46.5183 H   0  0  0  1  0  1  0  0  0  0  0  0
  124.7899  112.4336  -44.2467 H   0  0  0  1  0  1  0  0  0  0  0  0
  122.1150  108.5650  -44.3200 H   0  0  0  1  0  1  0  0  0  0  0  0
  122.9220  109.2020  -45.7920 H   0  0  0  1  0  1  0  0  0  0  0  0
  123.8480  104.3063  -46.8896 H   0  0  0  1  0  1  0  0  0  0  0  0
  123.9340  109.6410  -42.9260 H   0  0  0  1  0  1  0  0  0  0  0  0
  122.9770  110.8370  -43.8650 H   0  0  0  1  0  1  0  0  0  0  0  0
  124.6940  110.5770  -45.7380 H   0  0  0  1  0  1  0  0  0  0  0  0
  126.5078  112.3063  -45.9527 H   0  0  0  1  0  1  0  0  0  0  0  0
  127.5612  111.4707  -44.7621 H   0  0  0  1  0  1  0  0  0  0  0  0
  127.3962  113.4392  -43.2477 H   0  0  0  1  0  1  0  0  0  0  0  0
  126.3654  114.2749  -44.4588 H   0  0  0  1  0  1  0  0  0  0  0  0
  128.0790  113.8929  -44.8467 H   0  0  0  1  0  1  0  0  0  0  0  0
  126.5603  110.9191  -42.4364 H   0  0  0  1  0  1  0  0  0  0  0  0
  124.9044  111.5083  -42.0706 H   0  0  0  1  0  1  0  0  0  0  0  0
  126.6148  112.9420  -41.0327 H   0  0  0  1  0  1  0  0  0  0  0  0
  125.6875  113.8417  -42.2818 H   0  0  0  1  0  1  0  0  0  0  0  0
  127.3446  113.2526  -42.6460 H   0  0  0  1  0  1  0  0  0  0  0  0
  126.1780  109.0590  -43.5110 H   0  0  0  1  0  1  0  0  0  0  0  0
  126.9210  109.5950  -45.0570 H   0  0  0  1  0  1  0  0  0  0  0  0
  125.2890  108.3140  -46.3430 H   0  0  0  1  0  1  0  0  0  0  0  0
  126.0750  107.2320  -45.1430 H   0  0  0  1  0  1  0  0  0  0  0  0
  126.7986  100.9510  -48.7232 H   0  0  0  1  0  1  0  0  0  0  0  0
  128.4717  102.2481  -50.0097 H   0  0  0  1  0  1  0  0  0  0  0  0
  127.9356  103.0400  -52.2958 H   0  0  0  1  0  1  0  0  0  0  0  0
  125.7121  102.5509  -53.2855 H   0  0  0  1  0  1  0  0  0  0  0  0
  124.0425  101.2407  -52.0003 H   0  0  0  1  0  1  0  0  0  0  0  0
  1 10  1  0  0  0  0
  1 11  1  0  0  0  0
  1 22  1  0  0  0  0
  1 33  1  0  0  0  0
  2 16  1  0  0  0  0
  2 17  1  0  0  0  0
  2 19  1  0  0  0  0
  2 38  1  0  0  0  0
  3  4  1  0  0  0  0
  3  9  2  0  0  0  0
  3 12  1  0  0  0  0
  4  5  3  0  0  0  0
  5  6  1  0  0  0  0
  6 28  1  0  0  0  0
  6 31  1  0  0  0  0
  6 32  1  0  0  0  0
  7 23  2  0  0  0  0
  7 27  1  0  0  0  0
  7 28  1  0  0  0  0
  8 10  1  0  0  0  0
  8 12  2  0  0  0  0
  8 14  1  0  0  0  0
  9 13  1  0  0  0  0
  9 35  1  0  0  0  0
 10 36  1  0  0  0  0
 10 37  1  0  0  0  0
 11 15  1  0  0  0  0
 11 39  1  0  0  0  0
 11 40  1  0  0  0  0
 12 41  1  0  0  0  0
 13 14  2  0  0  0  0
 13 30  1  0  0  0  0
 14 29  1  0  0  0  0
 15 16  1  0  0  0  0
 15 42  1  0  0  0  0
 15 43  1  0  0  0  0
 16 21  1  0  0  0  0
 16 44  1  0  0  0  0
 17 18  1  0  0  0  0
 17 45  1  0  0  0  0
 17 46  1  0  0  0  0
 18 47  1  0  0  0  0
 18 48  1  0  0  0  0
 18 49  1  0  0  0  0
 19 20  1  0  0  0  0
 19 50  1  0  0  0  0
 19 51  1  0  0  0  0
 20 52  1  0  0  0  0
 20 53  1  0  0  0  0
 20 54  1  0  0  0  0
 21 22  1  0  0  0  0
 21 55  1  0  0  0  0
 21 56  1  0  0  0  0
 22 57  1  0  0  0  0
 22 58  1  0  0  0  0
 23 24  1  0  0  0  0
 23 59  1  0  0  0  0
 24 25  2  0  0  0  0
 24 60  1  0  0  0  0
 25 26  1  0  0  0  0
 25 61  1  0  0  0  0
 26 27  2  0  0  0  0
 26 62  1  0  0  0  0
 27 63  1  0  0  0  0
 29 34  1  0  0  0  0
M  END
> <ConfScore>
-0.439652

$$$$
4agp


 63 65  0  0  0  0  0  0  0  0999 V2000
  124.0460  107.7170  -44.7230 N   0  3  0  1  0  4  0  0  0  0  0  0
  125.5080  111.7370  -44.1130 N   0  3  0  1  0  4  0  0  0  0  0  0
  124.6548  102.9329  -45.4246 C   0  0  0  1  0  3  0  0  0  0  0  0
  124.7518  101.8573  -46.3680 C   0  0  0  1  0  2  0  0  0  0  0  0
  124.8516  100.9313  -47.1173 C   0  0  0  1  0  2  0  0  0  0  0  0
  124.9469   99.8311  -48.0976 C   0  0  0  1  0  4  0  0  0  0  0  0
  124.6440   97.8472  -46.7537 C   0  0  0  1  0  3  0  0  0  0  0  0
  124.0568  105.2395  -44.9573 C   0  0  0  1  0  3  0  0  0  0  0  0
  125.0797  102.7572  -44.1041 C   0  0  0  1  0  3  0  0  0  0  0  0
  123.4970  106.5410  -45.4510 C   0  0  0  1  0  4  0  0  0  0  0  0
  123.0770  108.8710  -44.7550 C   0  0  0  1  0  4  0  0  0  0  0  0
  124.1481  104.1724  -45.8570 C   0  0  0  1  0  3  0  0  0  0  0  0
  124.9761  103.8456  -43.2291 C   0  0  0  1  0  3  0  0  0  0  0  0
  124.4721  105.0986  -43.6072 C   0  0  0  1  0  3  0  0  0  0  0  0
  123.6820  109.9950  -43.9370 C   0  0  0  1  0  4  0  0  0  0  0  0
  124.9420  110.4210  -44.6780 C   0  0  0  1  0  4  0  0  0  0  0  0
  126.7493  112.2022  -44.8845 C   0  0  0  1  0  4  0  0  0  0  0  0
  127.1767  113.5440  -44.3208 C   0  0  0  1  0  4  0  0  0  0  0  0
  125.8303  111.7191  -42.6247 C   0  0  0  1  0  4  0  0  0  0  0  0
  126.4097  113.0298  -42.1100 C   0  0  0  1  0  4  0  0  0  0  0  0
  125.9830  109.2940  -44.5690 C   0  0  0  1  0  4  0  0  0  0  0  0
  125.3930  108.0860  -45.2720 C   0  0  0  1  0  4  0  0  0  0  0  0
  123.3269   98.3080  -46.6746 C   0  0  0  1  0  3  0  0  0  0  0  0
  122.3660   97.5897  -45.9592 C   0  0  0  1  0  3  0  0  0  0  0  0
  122.7187   96.4046  -45.3168 C   0  0  0  1  0  3  0  0  0  0  0  0
  124.0337   95.9405  -45.3861 C   0  0  0  1  0  3  0  0  0  0  0  0
  124.9932   96.6602  -46.1071 C   0  0  0  1  0  3  0  0  0  0  0  0
  125.4802   98.6533  -47.4870 O   0  0  0  1  0  2  0  0  0  0  0  0
  124.3850  106.1501  -42.7493 O   0  0  0  1  0  2  0  0  0  0  0  0
  125.6038  103.5759  -41.2209 I   0  0  0  1  0  1  0  0  0  0  0  0
  125.6048  100.1394  -48.9237 H   0  0  0  1  0  1  0  0  0  0  0  0
  123.9436   99.6106  -48.4921 H   0  0  0  1  0  1  0  0  0  0  0  0
  124.1710  107.4530  -43.7580 H   0  0  0  1  0  1  0  0  0  0  0  0
  124.7016  105.8861  -41.8937 H   0  0  0  1  0  1  0  0  0  0  0  0
  125.4782  101.8078  -43.7674 H   0  0  0  1  0  1  0  0  0  0  0  0
  122.4046  106.5262  -45.3215 H   0  0  0  1  0  1  0  0  0  0  0  0
  123.7377  106.6443  -46.5183 H   0  0  0  1  0  1  0  0  0  0  0  0
  124.7899  112.4336  -44.2467 H   0  0  0  1  0  1  0  0  0  0  0  0
  122.1150  108.5650  -44.3200 H   0  0  0  1  0  1  0  0  0  0  0  0
  122.9220  109.2020  -45.7920 H   0  0  0  1  0  1  0  0  0  0  0  0
  123.8296  104.3003  -46.8846 H   0  0  0  1  0  1  0  0  0  0  0  0
  123.9340  109.6410  -42.9260 H   0  0  0  1  0  1  0  0  0  0  0  0
  122.9770  110.8370  -43.8650 H   0  0  0  1  0  1  0  0  0  0  0  0
  124.6940  110.5770  -45.7380 H   0  0  0  1  0  1  0  0  0  0  0  0
  126.5078  112.3063  -45.9527 H   0  0  0  1  0  1  0  0  0  0  0  0
  127.5612  111.4707  -44.7621 H   0  0  0  1  0  1  0  0  0  0  0  0
  127.3962  113.4392  -43.2477 H   0  0  0  1  0  1  0  0  0  0  0  0
  126.3654  114.2749  -44.4588 H   0  0  0  1  0  1  0  0  0  0  0  0
  128.0790  113.8929  -44.8467 H   0  0  0  1  0  1  0  0  0  0  0  0
  126.5603  110.9191  -42.4364 H   0  0  0  1  0  1  0  0  0  0  0  0
  124.9044  111.5083  -42.0706 H   0  0  0  1  0  1  0  0  0  0  0  0
  126.6148  112.9420  -41.0327 H   0  0  0  1  0  1  0  0  0  0  0  0
  125.6875  113.8417  -42.2818 H   0  0  0  1  0  1  0  0  0  0  0  0
  127.3446  113.2526  -42.6460 H   0  0  0  1  0  1  0  0  0  0  0  0
  126.1780  109.0590  -43.5110 H   0  0  0  1  0  1  0  0  0  0  0  0
  126.9210  109.5950  -45.0570 H   0  0  0  1  0  1  0  0  0  0  0  0
  125.2890  108.3140  -46.3430 H   0  0  0  1  0  1  0  0  0  0  0  0
  126.0750  107.2320  -45.1430 H   0  0  0  1  0  1  0  0  0  0  0  0
  123.0484   99.2296  -47.1730 H   0  0  0  1  0  1  0  0  0  0  0  0
  121.3466   97.9547  -45.9022 H   0  0  0  1  0  1  0  0  0  0  0  0
  121.9729   95.8445  -44.7638 H   0  0  0  1  0  1  0  0  0  0  0  0
  124.3124   95.0225  -44.8802 H   0  0  0  1  0  1  0  0  0  0  0  0
  126.0125   96.2942  -46.1642 H   0  0  0  1  0  1  0  0  0  0  0  0
  1 10  1  0  0  0  0
  1 11  1  0  0  0  0
  1 22  1  0  0  0  0
  1 33  1  0  0  0  0
  2 16  1  0  0  0  0
  2 17  1  0  0  0  0
  2 19  1  0  0  0  0
  2 38  1  0  0  0  0
  3  4  1  0  0  0  0
  3  9  2  0  0  0  0
  3 12  1  0  0  0  0
  4  5  3  0  0  0  0
  5  6  1  0  0  0  0
  6 28  1  0  0  0  0
  6 31  1  0  0  0  0
  6 32  1  0  0  0  0
  7 23  2  0  0  0  0
  7 27  1  0  0  0  0
  7 28  1  0  0  0  0
  8 10  1  0  0  0  0
  8 12  2  0  0  0  0
  8 14  1  0  0  0  0
  9 13  1  0  0  0  0
  9 35  1  0  0  0  0
 10 36  1  0  0  0  0
 10 37  1  0  0  0  0
 11 15  1  0  0  0  0
 11 39  1  0  0  0  0
 11 40  1  0  0  0  0
 12 41  1  0  0  0  0
 13 14  2  0  0  0  0
 13 30  1  0  0  0  0
 14 29  1  0  0  0  0
 15 16  1  0  0  0  0
 15 42  1  0  0  0  0
 15 43  1  0  0  0  0
 16 21  1  0  0  0  0
 16 44  1  0  0  0  0
 17 18  1  0  0  0  0
 17 45  1  0  0  0  0
 17 46  1  0  0  0  0
 18 47  1  0  0  0  0
 18 48  1  0  0  0  0
 18 49  1  0  0  0  0
 19 20  1  0  0  0  0
 19 50  1  0  0  0  0
 19 51  1  0  0  0  0
 20 52  1  0  0  0  0
 20 53  1  0  0  0  0
 20 54  1  0  0  0  0
 21 22  1  0  0  0  0
 21 55  1  0  0  0  0
 21 56  1  0  0  0  0
 22 57  1  0  0  0  0
 22 58  1  0  0  0  0
 23 24  1  0  0  0  0
 23 59  1  0  0  0  0
 24 25  2  0  0  0  0
 24 60  1  0  0  0  0
 25 26  1  0  0  0  0
 25 61  1  0  0  0  0
 26 27  2  0  0  0  0
 26 62  1  0  0  0  0
 27 63  1  0  0  0  0
 29 34  1  0  0  0  0
M  END
> <ConfScore>
-0.439652

$$$$
4agp


 63 65  0  0  0  0  0  0  0  0999 V2000
    5.4320    2.2550   28.3390 N   0  3  0  1  0  4  0  0  0  0  0  0
    4.8056   -1.3098   27.7638 N   0  3  0  1  0  4  0  0  0  0  0  0
    8.8994    2.4754   31.7933 C   0  0  0  1  0  3  0  0  0  0  0  0
    9.4564    3.2010   32.8977 C   0  0  0  1  0  2  0  0  0  0  0  0
    9.8938    3.8464   33.8037 C   0  0  0  1  0  2  0  0  0  0  0  0
   10.4738    4.5835   34.9442 C   0  0  0  1  0  4  0  0  0  0  0  0
   10.3956    6.7566   35.9956 C   0  0  0  1  0  3  0  0  0  0  0  0
    7.4435    2.3781   29.8962 C   0  0  0  1  0  3  0  0  0  0  0  0
    9.2515    1.1610   31.5793 C   0  0  0  1  0  3  0  0  0  0  0  0
    6.4640    3.0610   28.9950 C   0  0  0  1  0  4  0  0  0  0  0  0
    6.0520    1.4770   27.2550 C   0  0  0  1  0  4  0  0  0  0  0  0
    8.0116    3.0865   30.9425 C   0  0  0  1  0  3  0  0  0  0  0  0
    8.7093    0.4535   30.5133 C   0  0  0  1  0  3  0  0  0  0  0  0
    7.8068    1.0616   29.6669 C   0  0  0  1  0  3  0  0  0  0  0  0
    4.9600    0.8100   26.4490 C   0  0  0  1  0  4  0  0  0  0  0  0
    4.0370   -0.0500   27.3240 C   0  0  0  1  0  4  0  0  0  0  0  0
    5.7496   -1.8149   26.6656 C   0  0  0  1  0  4  0  0  0  0  0  0
    6.6833   -0.6798   26.2906 C   0  0  0  1  0  4  0  0  0  0  0  0
    3.9373   -2.4674   28.2387 C   0  0  0  1  0  4  0  0  0  0  0  0
    4.7347   -3.6472   28.7777 C   0  0  0  1  0  4  0  0  0  0  0  0
    3.5580    0.6920   28.5700 C   0  0  0  1  0  4  0  0  0  0  0  0
    4.7240    1.3610   29.2750 C   0  0  0  1  0  4  0  0  0  0  0  0
    9.8518    8.0429   35.9402 C   0  0  0  1  0  3  0  0  0  0  0  0
   10.1879    8.9970   36.9034 C   0  0  0  1  0  3  0  0  0  0  0  0
   11.0725    8.6689   37.9288 C   0  0  0  1  0  3  0  0  0  0  0  0
   11.6245    7.3879   37.9879 C   0  0  0  1  0  3  0  0  0  0  0  0
   11.2827    6.4328   37.0238 C   0  0  0  1  0  3  0  0  0  0  0  0
    9.9793    5.9245   34.9850 O   0  0  0  1  0  2  0  0  0  0  0  0
    7.2790    0.3759   28.6178 O   0  0  0  1  0  2  0  0  0  0  0  0
    9.2712   -1.5659   30.1878 I   0  0  0  1  0  1  0  0  0  0  0  0
   11.5689    4.6053   34.8408 H   0  0  0  1  0  1  0  0  0  0  0  0
   10.2051    4.0710   35.8801 H   0  0  0  1  0  1  0  0  0  0  0  0
    4.7369    2.8837   27.9672 H   0  0  0  1  0  1  0  0  0  0  0  0
    7.8435    0.4746   27.8605 H   0  0  0  1  0  1  0  0  0  0  0  0
    9.9548    0.6763   32.2455 H   0  0  0  1  0  1  0  0  0  0  0  0
    5.9461    3.8223   29.5972 H   0  0  0  1  0  1  0  0  0  0  0  0
    7.0434    3.5529   28.2013 H   0  0  0  1  0  1  0  0  0  0  0  0
    5.3759   -1.0328   28.5492 H   0  0  0  1  0  1  0  0  0  0  0  0
    6.7157    0.7119   27.6822 H   0  0  0  1  0  1  0  0  0  0  0  0
    6.6341    2.1467   26.6056 H   0  0  0  1  0  1  0  0  0  0  0  0
    7.7540    4.1284   31.0903 H   0  0  0  1  0  1  0  0  0  0  0  0
    5.4248    0.1675   25.6861 H   0  0  0  1  0  1  0  0  0  0  0  0
    4.3575    1.5882   25.9564 H   0  0  0  1  0  1  0  0  0  0  0  0
    3.1599   -0.3440   26.7292 H   0  0  0  1  0  1  0  0  0  0  0  0
    5.1667   -2.1245   25.7854 H   0  0  0  1  0  1  0  0  0  0  0  0
    6.3326   -2.6696   27.0380 H   0  0  0  1  0  1  0  0  0  0  0  0
    7.2482   -0.3594   27.1789 H   0  0  0  1  0  1  0  0  0  0  0  0
    6.0949    0.1671   25.9058 H   0  0  0  1  0  1  0  0  0  0  0  0
    7.3851   -1.0224   25.5144 H   0  0  0  1  0  1  0  0  0  0  0  0
    3.3297   -2.8167   27.3918 H   0  0  0  1  0  1  0  0  0  0  0  0
    3.2765   -2.1018   29.0377 H   0  0  0  1  0  1  0  0  0  0  0  0
    4.0436   -4.4397   29.1012 H   0  0  0  1  0  1  0  0  0  0  0  0
    5.3427   -3.3178   29.6333 H   0  0  0  1  0  1  0  0  0  0  0  0
    5.3953   -4.0346   27.9873 H   0  0  0  1  0  1  0  0  0  0  0  0
    3.0827   -0.0249   29.2576 H   0  0  0  1  0  1  0  0  0  0  0  0
    2.8266    1.4580   28.2753 H   0  0  0  1  0  1  0  0  0  0  0  0
    4.3473    1.9483   30.1253 H   0  0  0  1  0  1  0  0  0  0  0  0
    5.4199    0.5906   29.6402 H   0  0  0  1  0  1  0  0  0  0  0  0
    9.1632    8.3021   35.1440 H   0  0  0  1  0  1  0  0  0  0  0  0
    9.7621    9.9929   36.8525 H   0  0  0  1  0  1  0  0  0  0  0  0
   11.3315    9.4078   38.6789 H   0  0  0  1  0  1  0  0  0  0  0  0
   12.3195    7.1327   38.7805 H   0  0  0  1  0  1  0  0  0  0  0  0
   11.7085    5.4368   37.0756 H   0  0  0  1  0  1  0  0  0  0  0  0
  1 10  1  0  0  0  0
  1 11  1  0  0  0  0
  1 22  1  0  0  0  0
  1 33  1  0  0  0  0
  2 16  1  0  0  0  0
  2 17  1  0  0  0  0
  2 19  1  0  0  0  0
  2 38  1  0  0  0  0
  3  4  1  0  0  0  0
  3  9  2  0  0  0  0
  3 12  1  0  0  0  0
  4  5  3  0  0  0  0
  5  6  1  0  0  0  0
  6 28  1  0  0  0  0
  6 31  1  0  0  0  0
  6 32  1  0  0  0  0
  7 23  2  0  0  0  0
  7 27  1  0  0  0  0
  7 28  1  0  0  0  0
  8 10  1  0  0  0  0
  8 12  2  0  0  0  0
  8 14  1  0  0  0  0
  9 13  1  0  0  0  0
  9 35  1  0  0  0  0
 10 36  1  0  0  0  0
 10 37  1  0  0  0  0
 11 15  1  0  0  0  0
 11 39  1  0  0  0  0
 11 40  1  0  0  0  0
 12 41  1  0  0  0  0
 13 14  2  0  0  0  0
 13 30  1  0  0  0  0
 14 29  1  0  0  0  0
 15 16  1  0  0  0  0
 15 42  1  0  0  0  0
 15 43  1  0  0  0  0
 16 21  1  0  0  0  0
 16 44  1  0  0  0  0
 17 18  1  0  0  0  0
 17 45  1  0  0  0  0
 17 46  1  0  0  0  0
 18 47  1  0  0  0  0
 18 48  1  0  0  0  0
 18 49  1  0  0  0  0
 19 20  1  0  0  0  0
 19 50  1  0  0  0  0
 19 51  1  0  0  0  0
 20 52  1  0  0  0  0
 20 53  1  0  0  0  0
 20 54  1  0  0  0  0
 21 22  1  0  0  0  0
 21 55  1  0  0  0  0
 21 56  1  0  0  0  0
 22 57  1  0  0  0  0
 22 58  1  0  0  0  0
 23 24  1  0  0  0  0
 23 59  1  0  0  0  0
 24 25  2  0  0  0  0
 24 60  1  0  0  0  0
 25 26  1  0  0  0  0
 25 61  1  0  0  0  0
 26 27  2  0  0  0  0
 26 62  1  0  0  0  0
 27 63  1  0  0  0  0
 29 34  1  0  0  0  0
M  END
> <ConfScore>
-0.431962

$$$$
4agp


 63 65  0  0  0  0  0  0  0  0999 V2000
    5.4320    2.2550   28.3390 N   0  3  0  1  0  4  0  0  0  0  0  0
    4.8056   -1.3098   27.7638 N   0  3  0  1  0  4  0  0  0  0  0  0
    8.8994    2.4754   31.7933 C   0  0  0  1  0  3  0  0  0  0  0  0
    9.4564    3.2010   32.8977 C   0  0  0  1  0  2  0  0  0  0  0  0
    9.8938    3.8464   33.8037 C   0  0  0  1  0  2  0  0  0  0  0  0
   10.4738    4.5835   34.9442 C   0  0  0  1  0  4  0  0  0  0  0  0
   10.3956    6.7566   35.9956 C   0  0  0  1  0  3  0  0  0  0  0  0
    7.4435    2.3781   29.8962 C   0  0  0  1  0  3  0  0  0  0  0  0
    9.2515    1.1610   31.5793 C   0  0  0  1  0  3  0  0  0  0  0  0
    6.4640    3.0610   28.9950 C   0  0  0  1  0  4  0  0  0  0  0  0
    6.0520    1.4770   27.2550 C   0  0  0  1  0  4  0  0  0  0  0  0
    8.0116    3.0865   30.9425 C   0  0  0  1  0  3  0  0  0  0  0  0
    8.7093    0.4535   30.5133 C   0  0  0  1  0  3  0  0  0  0  0  0
    7.8068    1.0616   29.6669 C   0  0  0  1  0  3  0  0  0  0  0  0
    4.9600    0.8100   26.4490 C   0  0  0  1  0  4  0  0  0  0  0  0
    4.0370   -0.0500   27.3240 C   0  0  0  1  0  4  0  0  0  0  0  0
    5.7496   -1.8149   26.6656 C   0  0  0  1  0  4  0  0  0  0  0  0
    6.6833   -0.6798   26.2906 C   0  0  0  1  0  4  0  0  0  0  0  0
    3.9373   -2.4674   28.2387 C   0  0  0  1  0  4  0  0  0  0  0  0
    2.9771   -2.9855   27.1768 C   0  0  0  1  0  4  0  0  0  0  0  0
    3.5580    0.6920   28.5700 C   0  0  0  1  0  4  0  0  0  0  0  0
    4.7240    1.3610   29.2750 C   0  0  0  1  0  4  0  0  0  0  0  0
    9.8518    8.0429   35.9402 C   0  0  0  1  0  3  0  0  0  0  0  0
   10.1879    8.9970   36.9034 C   0  0  0  1  0  3  0  0  0  0  0  0
   11.0725    8.6689   37.9288 C   0  0  0  1  0  3  0  0  0  0  0  0
   11.6245    7.3879   37.9879 C   0  0  0  1  0  3  0  0  0  0  0  0
   11.2827    6.4328   37.0238 C   0  0  0  1  0  3  0  0  0  0  0  0
    9.9793    5.9245   34.9850 O   0  0  0  1  0  2  0  0  0  0  0  0
    7.2790    0.3759   28.6178 O   0  0  0  1  0  2  0  0  0  0  0  0
    9.2712   -1.5659   30.1878 I   0  0  0  1  0  1  0  0  0  0  0  0
   11.5689    4.6053   34.8408 H   0  0  0  1  0  1  0  0  0  0  0  0
   10.2051    4.0710   35.8801 H   0  0  0  1  0  1  0  0  0  0  0  0
    4.7369    2.8837   27.9672 H   0  0  0  1  0  1  0  0  0  0  0  0
    7.8435    0.4746   27.8605 H   0  0  0  1  0  1  0  0  0  0  0  0
    9.9548    0.6763   32.2455 H   0  0  0  1  0  1  0  0  0  0  0  0
    5.9461    3.8223   29.5972 H   0  0  0  1  0  1  0  0  0  0  0  0
    7.0434    3.5529   28.2013 H   0  0  0  1  0  1  0  0  0  0  0  0
    5.3759   -1.0328   28.5492 H   0  0  0  1  0  1  0  0  0  0  0  0
    6.7157    0.7119   27.6822 H   0  0  0  1  0  1  0  0  0  0  0  0
    6.6341    2.1467   26.6056 H   0  0  0  1  0  1  0  0  0  0  0  0
    7.7540    4.1284   31.0903 H   0  0  0  1  0  1  0  0  0  0  0  0
    5.4248    0.1675   25.6861 H   0  0  0  1  0  1  0  0  0  0  0  0
    4.3575    1.5882   25.9564 H   0  0  0  1  0  1  0  0  0  0  0  0
    3.1599   -0.3440   26.7292 H   0  0  0  1  0  1  0  0  0  0  0  0
    5.1667   -2.1245   25.7854 H   0  0  0  1  0  1  0  0  0  0  0  0
    6.3326   -2.6696   27.0380 H   0  0  0  1  0  1  0  0  0  0  0  0
    7.2482   -0.3594   27.1789 H   0  0  0  1  0  1  0  0  0  0  0  0
    6.0949    0.1671   25.9058 H   0  0  0  1  0  1  0  0  0  0  0  0
    7.3851   -1.0224   25.5144 H   0  0  0  1  0  1  0  0  0  0  0  0
    3.3491   -2.1291   29.1035 H   0  0  0  1  0  1  0  0  0  0  0  0
    4.5954   -3.2938   28.5436 H   0  0  0  1  0  1  0  0  0  0  0  0
    2.3876   -3.8174   27.5900 H   0  0  0  1  0  1  0  0  0  0  0  0
    3.5497   -3.3377   26.3060 H   0  0  0  1  0  1  0  0  0  0  0  0
    2.3017   -2.1740   26.8663 H   0  0  0  1  0  1  0  0  0  0  0  0
    3.0827   -0.0249   29.2576 H   0  0  0  1  0  1  0  0  0  0  0  0
    2.8266    1.4580   28.2753 H   0  0  0  1  0  1  0  0  0  0  0  0
    4.3473    1.9483   30.1253 H   0  0  0  1  0  1  0  0  0  0  0  0
    5.4199    0.5906   29.6402 H   0  0  0  1  0  1  0  0  0  0  0  0
    9.1632    8.3021   35.1440 H   0  0  0  1  0  1  0  0  0  0  0  0
    9.7621    9.9929   36.8525 H   0  0  0  1  0  1  0  0  0  0  0  0
   11.3315    9.4078   38.6789 H   0  0  0  1  0  1  0  0  0  0  0  0
   12.3195    7.1327   38.7805 H   0  0  0  1  0  1  0  0  0  0  0  0
   11.7085    5.4368   37.0756 H   0  0  0  1  0  1  0  0  0  0  0  0
  1 10  1  0  0  0  0
  1 11  1  0  0  0  0
  1 22  1  0  0  0  0
  1 33  1  0  0  0  0
  2 16  1  0  0  0  0
  2 17  1  0  0  0  0
  2 19  1  0  0  0  0
  2 38  1  0  0  0  0
  3  4  1  0  0  0  0
  3  9  2  0  0  0  0
  3 12  1  0  0  0  0
  4  5  3  0  0  0  0
  5  6  1  0  0  0  0
  6 28  1  0  0  0  0
  6 31  1  0  0  0  0
  6 32  1  0  0  0  0
  7 23  2  0  0  0  0
  7 27  1  0  0  0  0
  7 28  1  0  0  0  0
  8 10  1  0  0  0  0
  8 12  2  0  0  0  0
  8 14  1  0  0  0  0
  9 13  1  0  0  0  0
  9 35  1  0  0  0  0
 10 36  1  0  0  0  0
 10 37  1  0  0  0  0
 11 15  1  0  0  0  0
 11 39  1  0  0  0  0
 11 40  1  0  0  0  0
 12 41  1  0  0  0  0
 13 14  2  0  0  0  0
 13 30  1  0  0  0  0
 14 29  1  0  0  0  0
 15 16  1  0  0  0  0
 15 42  1  0  0  0  0
 15 43  1  0  0  0  0
 16 21  1  0  0  0  0
 16 44  1  0  0  0  0
 17 18  1  0  0  0  0
 17 45  1  0  0  0  0
 17 46  1  0  0  0  0
 18 47  1  0  0  0  0
 18 48  1  0  0  0  0
 18 49  1  0  0  0  0
 19 20  1  0  0  0  0
 19 50  1  0  0  0  0
 19 51  1  0  0  0  0
 20 52  1  0  0  0  0
 20 53  1  0  0  0  0
 20 54  1  0  0  0  0
 21 22  1  0  0  0  0
 21 55  1  0  0  0  0
 21 56  1  0  0  0  0
 22 57  1  0  0  0  0
 22 58  1  0  0  0  0
 23 24  1  0  0  0  0
 23 59  1  0  0  0  0
 24 25  2  0  0  0  0
 24 60  1  0  0  0  0
 25 26  1  0  0  0  0
 25 61  1  0  0  0  0
 26 27  2  0  0  0  0
 26 62  1  0  0  0  0
 27 63  1  0  0  0  0
 29 34  1  0  0  0  0
M  END
> <ConfScore>
-0.431781

$$$$
4agp


 63 65  0  0  0  0  0  0  0  0999 V2000
  124.0460  107.7170  -44.7230 N   0  3  0  1  0  4  0  0  0  0  0  0
  125.5080  111.7370  -44.1130 N   0  3  0  1  0  4  0  0  0  0  0  0
  125.0505  103.3204  -44.1966 C   0  0  0  1  0  3  0  0  0  0  0  0
  124.8442  102.4140  -43.1047 C   0  0  0  1  0  2  0  0  0  0  0  0
  124.6345  101.6885  -42.1780 C   0  0  0  1  0  2  0  0  0  0  0  0
  124.4313  100.7480  -41.0579 C   0  0  0  1  0  4  0  0  0  0  0  0
  122.0707  100.9353  -40.5823 C   0  0  0  1  0  3  0  0  0  0  0  0
  124.3930  105.3401  -45.3733 C   0  0  0  1  0  3  0  0  0  0  0  0
  126.0468  103.0709  -45.1455 C   0  0  0  1  0  3  0  0  0  0  0  0
  123.4970  106.5410  -45.4510 C   0  0  0  1  0  4  0  0  0  0  0  0
  123.0770  108.8710  -44.7550 C   0  0  0  1  0  4  0  0  0  0  0  0
  124.2184  104.4496  -44.3089 C   0  0  0  1  0  3  0  0  0  0  0  0
  126.1946  103.9812  -46.1993 C   0  0  0  1  0  3  0  0  0  0  0  0
  125.3973  105.1247  -46.3531 C   0  0  0  1  0  3  0  0  0  0  0  0
  123.6820  109.9950  -43.9370 C   0  0  0  1  0  4  0  0  0  0  0  0
  124.9420  110.4210  -44.6780 C   0  0  0  1  0  4  0  0  0  0  0  0
  124.4285  112.8207  -44.0004 C   0  0  0  1  0  4  0  0  0  0  0  0
  125.0541  114.0406  -43.3511 C   0  0  0  1  0  4  0  0  0  0  0  0
  126.7022  112.3069  -44.8670 C   0  0  0  1  0  4  0  0  0  0  0  0
  126.3999  112.6491  -46.3195 C   0  0  0  1  0  4  0  0  0  0  0  0
  125.9830  109.2940  -44.5690 C   0  0  0  1  0  4  0  0  0  0  0  0
  125.3930  108.0860  -45.2720 C   0  0  0  1  0  4  0  0  0  0  0  0
  121.9449  100.2647  -41.8021 C   0  0  0  1  0  3  0  0  0  0  0  0
  120.6834   99.9398  -42.3060 C   0  0  0  1  0  3  0  0  0  0  0  0
  119.5384  100.2859  -41.5914 C   0  0  0  1  0  3  0  0  0  0  0  0
  119.6552  100.9611  -40.3749 C   0  0  0  1  0  3  0  0  0  0  0  0
  120.9207  101.2815  -39.8705 C   0  0  0  1  0  3  0  0  0  0  0  0
  123.3681  101.1913  -40.2108 O   0  0  0  1  0  2  0  0  0  0  0  0
  125.5459  105.9962  -47.3864 O   0  0  0  1  0  2  0  0  0  0  0  0
  127.7170  103.6139  -47.6301 I   0  0  0  1  0  1  0  0  0  0  0  0
  125.3584  100.6816  -40.4694 H   0  0  0  1  0  1  0  0  0  0  0  0
  124.1818   99.7549  -41.4606 H   0  0  0  1  0  1  0  0  0  0  0  0
  124.1710  107.4530  -43.7580 H   0  0  0  1  0  1  0  0  0  0  0  0
  126.2574  105.7055  -47.9443 H   0  0  0  1  0  1  0  0  0  0  0  0
  126.6851  102.1990  -45.0689 H   0  0  0  1  0  1  0  0  0  0  0  0
  122.5213  106.2813  -45.0139 H   0  0  0  1  0  1  0  0  0  0  0  0
  123.3642  106.8120  -46.5077 H   0  0  0  1  0  1  0  0  0  0  0  0
  125.8267  111.5289  -43.1782 H   0  0  0  1  0  1  0  0  0  0  0  0
  122.1150  108.5650  -44.3200 H   0  0  0  1  0  1  0  0  0  0  0  0
  122.9220  109.2020  -45.7920 H   0  0  0  1  0  1  0  0  0  0  0  0
  123.4439  104.6289  -43.5728 H   0  0  0  1  0  1  0  0  0  0  0  0
  123.9340  109.6410  -42.9260 H   0  0  0  1  0  1  0  0  0  0  0  0
  122.9770  110.8370  -43.8650 H   0  0  0  1  0  1  0  0  0  0  0  0
  124.6940  110.5770  -45.7380 H   0  0  0  1  0  1  0  0  0  0  0  0
  123.5954  112.4551  -43.3818 H   0  0  0  1  0  1  0  0  0  0  0  0
  124.0549  113.0814  -45.0011 H   0  0  0  1  0  1  0  0  0  0  0  0
  125.9002  114.3894  -43.9622 H   0  0  0  1  0  1  0  0  0  0  0  0
  125.4135  113.7767  -42.3448 H   0  0  0  1  0  1  0  0  0  0  0  0
  124.3029  114.8420  -43.2745 H   0  0  0  1  0  1  0  0  0  0  0  0
  127.5129  111.5648  -44.8464 H   0  0  0  1  0  1  0  0  0  0  0  0
  127.0311  113.2234  -44.3563 H   0  0  0  1  0  1  0  0  0  0  0  0
  127.3046  113.0545  -46.7966 H   0  0  0  1  0  1  0  0  0  0  0  0
  125.5958  113.3988  -46.3593 H   0  0  0  1  0  1  0  0  0  0  0  0
  126.0791  111.7403  -46.8509 H   0  0  0  1  0  1  0  0  0  0  0  0
  126.1780  109.0590  -43.5110 H   0  0  0  1  0  1  0  0  0  0  0  0
  126.9210  109.5950  -45.0570 H   0  0  0  1  0  1  0  0  0  0  0  0
  125.2890  108.3140  -46.3430 H   0  0  0  1  0  1  0  0  0  0  0  0
  126.0750  107.2320  -45.1430 H   0  0  0  1  0  1  0  0  0  0  0  0
  122.8334   99.9936  -42.3611 H   0  0  0  1  0  1  0  0  0  0  0  0
  120.5947   99.4202  -43.2535 H   0  0  0  1  0  1  0  0  0  0  0  0
  118.5587  100.0314  -41.9800 H   0  0  0  1  0  1  0  0  0  0  0  0
  118.7651  101.2386  -39.8207 H   0  0  0  1  0  1  0  0  0  0  0  0
  121.0086  101.8008  -38.9225 H   0  0  0  1  0  1  0  0  0  0  0  0
  1 10  1  0  0  0  0
  1 11  1  0  0  0  0
  1 22  1  0  0  0  0
  1 33  1  0  0  0  0
  2 16  1  0  0  0  0
  2 17  1  0  0  0  0
  2 19  1  0  0  0  0
  2 38  1  0  0  0  0
  3  4  1  0  0  0  0
  3  9  2  0  0  0  0
  3 12  1  0  0  0  0
  4  5  3  0  0  0  0
  5  6  1  0  0  0  0
  6 28  1  0  0  0  0
  6 31  1  0  0  0  0
  6 32  1  0  0  0  0
  7 23  2  0  0  0  0
  7 27  1  0  0  0  0
  7 28  1  0  0  0  0
  8 10  1  0  0  0  0
  8 12  2  0  0  0  0
  8 14  1  0  0  0  0
  9 13  1  0  0  0  0
  9 35  1  0  0  0  0
 10 36  1  0  0  0  0
 10 37  1  0  0  0  0
 11 15  1  0  0  0  0
 11 39  1  0  0  0  0
 11 40  1  0  0  0  0
 12 41  1  0  0  0  0
 13 14  2  0  0  0  0
 13 30  1  0  0  0  0
 14 29  1  0  0  0  0
 15 16  1  0  0  0  0
 15 42  1  0  0  0  0
 15 43  1  0  0  0  0
 16 21  1  0  0  0  0
 16 44  1  0  0  0  0
 17 18  1  0  0  0  0
 17 45  1  0  0  0  0
 17 46  1  0  0  0  0
 18 47  1  0  0  0  0
 18 48  1  0  0  0  0
 18 49  1  0  0  0  0
 19 20  1  0  0  0  0
 19 50  1  0  0  0  0
 19 51  1  0  0  0  0
 20 52  1  0  0  0  0
 20 53  1  0  0  0  0
 20 54  1  0  0  0  0
 21 22  1  0  0  0  0
 21 55  1  0  0  0  0
 21 56  1  0  0  0  0
 22 57  1  0  0  0  0
 22 58  1  0  0  0  0
 23 24  1  0  0  0  0
 23 59  1  0  0  0  0
 24 25  2  0  0  0  0
 24 60  1  0  0  0  0
 25 26  1  0  0  0  0
 25 61  1  0  0  0  0
 26 27  2  0  0  0  0
 26 62  1  0  0  0  0
 27 63  1  0  0  0  0
 29 34  1  0  0  0  0
M  END
> <ConfScore>
-0.431248

$$$$
4agp


 63 65  0  0  0  0  0  0  0  0999 V2000
  124.0460  107.7170  -44.7230 N   0  3  0  1  0  4  0  0  0  0  0  0
  125.5080  111.7370  -44.1130 N   0  3  0  1  0  4  0  0  0  0  0  0
  125.0505  103.3204  -44.1966 C   0  0  0  1  0  3  0  0  0  0  0  0
  124.8442  102.4140  -43.1047 C   0  0  0  1  0  2  0  0  0  0  0  0
  124.6345  101.6885  -42.1780 C   0  0  0  1  0  2  0  0  0  0  0  0
  124.4313  100.7480  -41.0579 C   0  0  0  1  0  4  0  0  0  0  0  0
  122.0707  100.9353  -40.5823 C   0  0  0  1  0  3  0  0  0  0  0  0
  124.3930  105.3401  -45.3733 C   0  0  0  1  0  3  0  0  0  0  0  0
  126.0468  103.0709  -45.1455 C   0  0  0  1  0  3  0  0  0  0  0  0
  123.4970  106.5410  -45.4510 C   0  0  0  1  0  4  0  0  0  0  0  0
  123.0770  108.8710  -44.7550 C   0  0  0  1  0  4  0  0  0  0  0  0
  124.2184  104.4496  -44.3089 C   0  0  0  1  0  3  0  0  0  0  0  0
  126.1946  103.9812  -46.1993 C   0  0  0  1  0  3  0  0  0  0  0  0
  125.3973  105.1247  -46.3531 C   0  0  0  1  0  3  0  0  0  0  0  0
  123.6820  109.9950  -43.9370 C   0  0  0  1  0  4  0  0  0  0  0  0
  124.9420  110.4210  -44.6780 C   0  0  0  1  0  4  0  0  0  0  0  0
  126.7493  112.2022  -44.8845 C   0  0  0  1  0  4  0  0  0  0  0  0
  127.1767  113.5440  -44.3208 C   0  0  0  1  0  4  0  0  0  0  0  0
  125.8303  111.7191  -42.6247 C   0  0  0  1  0  4  0  0  0  0  0  0
  126.8844  110.6896  -42.2409 C   0  0  0  1  0  4  0  0  0  0  0  0
  125.9830  109.2940  -44.5690 C   0  0  0  1  0  4  0  0  0  0  0  0
  125.3930  108.0860  -45.2720 C   0  0  0  1  0  4  0  0  0  0  0  0
  121.9449  100.2647  -41.8021 C   0  0  0  1  0  3  0  0  0  0  0  0
  120.6834   99.9398  -42.3060 C   0  0  0  1  0  3  0  0  0  0  0  0
  119.5384  100.2859  -41.5914 C   0  0  0  1  0  3  0  0  0  0  0  0
  119.6552  100.9611  -40.3749 C   0  0  0  1  0  3  0  0  0  0  0  0
  120.9207  101.2815  -39.8705 C   0  0  0  1  0  3  0  0  0  0  0  0
  123.3681  101.1913  -40.2108 O   0  0  0  1  0  2  0  0  0  0  0  0
  125.5459  105.9962  -47.3864 O   0  0  0  1  0  2  0  0  0  0  0  0
  127.7170  103.6139  -47.6301 I   0  0  0  1  0  1  0  0  0  0  0  0
  125.3584  100.6816  -40.4694 H   0  0  0  1  0  1  0  0  0  0  0  0
  124.1818   99.7549  -41.4606 H   0  0  0  1  0  1  0  0  0  0  0  0
  124.1710  107.4530  -43.7580 H   0  0  0  1  0  1  0  0  0  0  0  0
  126.2574  105.7055  -47.9443 H   0  0  0  1  0  1  0  0  0  0  0  0
  126.6851  102.1990  -45.0689 H   0  0  0  1  0  1  0  0  0  0  0  0
  122.5213  106.2813  -45.0139 H   0  0  0  1  0  1  0  0  0  0  0  0
  123.3642  106.8120  -46.5077 H   0  0  0  1  0  1  0  0  0  0  0  0
  124.7899  112.4336  -44.2467 H   0  0  0  1  0  1  0  0  0  0  0  0
  122.1150  108.5650  -44.3200 H   0  0  0  1  0  1  0  0  0  0  0  0
  122.9220  109.2020  -45.7920 H   0  0  0  1  0  1  0  0  0  0  0  0
  123.4439  104.6289  -43.5728 H   0  0  0  1  0  1  0  0  0  0  0  0
  123.9340  109.6410  -42.9260 H   0  0  0  1  0  1  0  0  0  0  0  0
  122.9770  110.8370  -43.8650 H   0  0  0  1  0  1  0  0  0  0  0  0
  124.6940  110.5770  -45.7380 H   0  0  0  1  0  1  0  0  0  0  0  0
  126.5078  112.3063  -45.9527 H   0  0  0  1  0  1  0  0  0  0  0  0
  127.5612  111.4707  -44.7621 H   0  0  0  1  0  1  0  0  0  0  0  0
  127.3962  113.4392  -43.2477 H   0  0  0  1  0  1  0  0  0  0  0  0
  126.3654  114.2749  -44.4588 H   0  0  0  1  0  1  0  0  0  0  0  0
  128.0790  113.8929  -44.8467 H   0  0  0  1  0  1  0  0  0  0  0  0
  124.9074  111.4941  -42.0715 H   0  0  0  1  0  1  0  0  0  0  0  0
  126.1971  112.7147  -42.3361 H   0  0  0  1  0  1  0  0  0  0  0  0
  127.0648  110.7363  -41.1566 H   0  0  0  1  0  1  0  0  0  0  0  0
  127.8195  110.9052  -42.7788 H   0  0  0  1  0  1  0  0  0  0  0  0
  126.5299  109.6837  -42.5124 H   0  0  0  1  0  1  0  0  0  0  0  0
  126.1780  109.0590  -43.5110 H   0  0  0  1  0  1  0  0  0  0  0  0
  126.9210  109.5950  -45.0570 H   0  0  0  1  0  1  0  0  0  0  0  0
  125.2890  108.3140  -46.3430 H   0  0  0  1  0  1  0  0  0  0  0  0
  126.0750  107.2320  -45.1430 H   0  0  0  1  0  1  0  0  0  0  0  0
  122.8334   99.9936  -42.3611 H   0  0  0  1  0  1  0  0  0  0  0  0
  120.5947   99.4202  -43.2535 H   0  0  0  1  0  1  0  0  0  0  0  0
  118.5587  100.0314  -41.9800 H   0  0  0  1  0  1  0  0  0  0  0  0
  118.7651  101.2386  -39.8207 H   0  0  0  1  0  1  0  0  0  0  0  0
  121.0086  101.8008  -38.9225 H   0  0  0  1  0  1  0  0  0  0  0  0
  1 10  1  0  0  0  0
  1 11  1  0  0  0  0
  1 22  1  0  0  0  0
  1 33  1  0  0  0  0
  2 16  1  0  0  0  0
  2 17  1  0  0  0  0
  2 19  1  0  0  0  0
  2 38  1  0  0  0  0
  3  4  1  0  0  0  0
  3  9  2  0  0  0  0
  3 12  1  0  0  0  0
  4  5  3  0  0  0  0
  5  6  1  0  0  0  0
  6 28  1  0  0  0  0
  6 31  1  0  0  0  0
  6 32  1  0  0  0  0
  7 23  2  0  0  0  0
  7 27  1  0  0  0  0
  7 28  1  0  0  0  0
  8 10  1  0  0  0  0
  8 12  2  0  0  0  0
  8 14  1  0  0  0  0
  9 13  1  0  0  0  0
  9 35  1  0  0  0  0
 10 36  1  0  0  0  0
 10 37  1  0  0  0  0
 11 15  1  0  0  0  0
 11 39  1  0  0  0  0
 11 40  1  0  0  0  0
 12 41  1  0  0  0  0
 13 14  2  0  0  0  0
 13 30  1  0  0  0  0
 14 29  1  0  0  0  0
 15 16  1  0  0  0  0
 15 42  1  0  0  0  0
 15 43  1  0  0  0  0
 16 21  1  0  0  0  0
 16 44  1  0  0  0  0
 17 18  1  0  0  0  0
 17 45  1  0  0  0  0
 17 46  1  0  0  0  0
 18 47  1  0  0  0  0
 18 48  1  0  0  0  0
 18 49  1  0  0  0  0
 19 20  1  0  0  0  0
 19 50  1  0  0  0  0
 19 51  1  0  0  0  0
 20 52  1  0  0  0  0
 20 53  1  0  0  0  0
 20 54  1  0  0  0  0
 21 22  1  0  0  0  0
 21 55  1  0  0  0  0
 21 56  1  0  0  0  0
 22 57  1  0  0  0  0
 22 58  1  0  0  0  0
 23 24  1  0  0  0  0
 23 59  1  0  0  0  0
 24 25  2  0  0  0  0
 24 60  1  0  0  0  0
 25 26  1  0  0  0  0
 25 61  1  0  0  0  0
 26 27  2  0  0  0  0
 26 62  1  0  0  0  0
 27 63  1  0  0  0  0
 29 34  1  0  0  0  0
M  END
> <ConfScore>
-0.429829

$$$$
4agp


 63 65  0  0  0  0  0  0  0  0999 V2000
    5.4320    2.2550   28.3390 N   0  3  0  1  0  4  0  0  0  0  0  0
    4.8056   -1.3098   27.7638 N   0  3  0  1  0  4  0  0  0  0  0  0
    8.8994    2.4754   31.7933 C   0  0  0  1  0  3  0  0  0  0  0  0
    9.4564    3.2010   32.8977 C   0  0  0  1  0  2  0  0  0  0  0  0
    9.8938    3.8464   33.8037 C   0  0  0  1  0  2  0  0  0  0  0  0
   10.4738    4.5835   34.9442 C   0  0  0  1  0  4  0  0  0  0  0  0
   10.3956    6.7566   35.9956 C   0  0  0  1  0  3  0  0  0  0  0  0
    7.4435    2.3781   29.8962 C   0  0  0  1  0  3  0  0  0  0  0  0
    9.2515    1.1610   31.5793 C   0  0  0  1  0  3  0  0  0  0  0  0
    6.4640    3.0610   28.9950 C   0  0  0  1  0  4  0  0  0  0  0  0
    6.0520    1.4770   27.2550 C   0  0  0  1  0  4  0  0  0  0  0  0
    8.0116    3.0865   30.9425 C   0  0  0  1  0  3  0  0  0  0  0  0
    8.7093    0.4535   30.5133 C   0  0  0  1  0  3  0  0  0  0  0  0
    7.8068    1.0616   29.6669 C   0  0  0  1  0  3  0  0  0  0  0  0
    4.9600    0.8100   26.4490 C   0  0  0  1  0  4  0  0  0  0  0  0
    4.0370   -0.0500   27.3240 C   0  0  0  1  0  4  0  0  0  0  0  0
    5.7496   -1.8149   26.6656 C   0  0  0  1  0  4  0  0  0  0  0  0
    4.9016   -2.3511   25.5279 C   0  0  0  1  0  4  0  0  0  0  0  0
    3.9373   -2.4674   28.2387 C   0  0  0  1  0  4  0  0  0  0  0  0
    4.7295   -3.6090   28.8612 C   0  0  0  1  0  4  0  0  0  0  0  0
    3.5580    0.6920   28.5700 C   0  0  0  1  0  4  0  0  0  0  0  0
    4.7240    1.3610   29.2750 C   0  0  0  1  0  4  0  0  0  0  0  0
    9.8518    8.0429   35.9402 C   0  0  0  1  0  3  0  0  0  0  0  0
   10.1879    8.9970   36.9034 C   0  0  0  1  0  3  0  0  0  0  0  0
   11.0725    8.6689   37.9288 C   0  0  0  1  0  3  0  0  0  0  0  0
   11.6245    7.3879   37.9879 C   0  0  0  1  0  3  0  0  0  0  0  0
   11.2827    6.4328   37.0238 C   0  0  0  1  0  3  0  0  0  0  0  0
    9.9793    5.9245   34.9850 O   0  0  0  1  0  2  0  0  0  0  0  0
    7.2790    0.3759   28.6178 O   0  0  0  1  0  2  0  0  0  0  0  0
    9.2712   -1.5659   30.1878 I   0  0  0  1  0  1  0  0  0  0  0  0
   11.5689    4.6053   34.8408 H   0  0  0  1  0  1  0  0  0  0  0  0
   10.2051    4.0710   35.8801 H   0  0  0  1  0  1  0  0  0  0  0  0
    4.7369    2.8837   27.9672 H   0  0  0  1  0  1  0  0  0  0  0  0
    7.8435    0.4746   27.8605 H   0  0  0  1  0  1  0  0  0  0  0  0
    9.9548    0.6763   32.2455 H   0  0  0  1  0  1  0  0  0  0  0  0
    5.9461    3.8223   29.5972 H   0  0  0  1  0  1  0  0  0  0  0  0
    7.0434    3.5529   28.2013 H   0  0  0  1  0  1  0  0  0  0  0  0
    5.3759   -1.0328   28.5492 H   0  0  0  1  0  1  0  0  0  0  0  0
    6.7157    0.7119   27.6822 H   0  0  0  1  0  1  0  0  0  0  0  0
    6.6341    2.1467   26.6056 H   0  0  0  1  0  1  0  0  0  0  0  0
    7.7540    4.1284   31.0903 H   0  0  0  1  0  1  0  0  0  0  0  0
    5.4248    0.1675   25.6861 H   0  0  0  1  0  1  0  0  0  0  0  0
    4.3575    1.5882   25.9564 H   0  0  0  1  0  1  0  0  0  0  0  0
    3.1599   -0.3440   26.7292 H   0  0  0  1  0  1  0  0  0  0  0  0
    6.3900   -2.6163   27.0631 H   0  0  0  1  0  1  0  0  0  0  0  0
    6.3786   -0.9885   26.3043 H   0  0  0  1  0  1  0  0  0  0  0  0
    4.2475   -1.5518   25.1482 H   0  0  0  1  0  1  0  0  0  0  0  0
    4.2848   -3.1866   25.8925 H   0  0  0  1  0  1  0  0  0  0  0  0
    5.5565   -2.7047   24.7164 H   0  0  0  1  0  1  0  0  0  0  0  0
    3.3802   -2.8608   27.3765 H   0  0  0  1  0  1  0  0  0  0  0  0
    3.2300   -2.0867   28.9894 H   0  0  0  1  0  1  0  0  0  0  0  0
    4.0385   -4.4036   29.1799 H   0  0  0  1  0  1  0  0  0  0  0  0
    5.2869   -3.2351   29.7328 H   0  0  0  1  0  1  0  0  0  0  0  0
    5.4365   -4.0112   28.1199 H   0  0  0  1  0  1  0  0  0  0  0  0
    3.0827   -0.0249   29.2576 H   0  0  0  1  0  1  0  0  0  0  0  0
    2.8266    1.4580   28.2753 H   0  0  0  1  0  1  0  0  0  0  0  0
    4.3473    1.9483   30.1253 H   0  0  0  1  0  1  0  0  0  0  0  0
    5.4199    0.5906   29.6402 H   0  0  0  1  0  1  0  0  0  0  0  0
    9.1632    8.3021   35.1440 H   0  0  0  1  0  1  0  0  0  0  0  0
    9.7621    9.9929   36.8525 H   0  0  0  1  0  1  0  0  0  0  0  0
   11.3315    9.4078   38.6789 H   0  0  0  1  0  1  0  0  0  0  0  0
   12.3195    7.1327   38.7805 H   0  0  0  1  0  1  0  0  0  0  0  0
   11.7085    5.4368   37.0756 H   0  0  0  1  0  1  0  0  0  0  0  0
  1 10  1  0  0  0  0
  1 11  1  0  0  0  0
  1 22  1  0  0  0  0
  1 33  1  0  0  0  0
  2 16  1  0  0  0  0
  2 17  1  0  0  0  0
  2 19  1  0  0  0  0
  2 38  1  0  0  0  0
  3  4  1  0  0  0  0
  3  9  2  0  0  0  0
  3 12  1  0  0  0  0
  4  5  3  0  0  0  0
  5  6  1  0  0  0  0
  6 28  1  0  0  0  0
  6 31  1  0  0  0  0
  6 32  1  0  0  0  0
  7 23  2  0  0  0  0
  7 27  1  0  0  0  0
  7 28  1  0  0  0  0
  8 10  1  0  0  0  0
  8 12  2  0  0  0  0
  8 14  1  0  0  0  0
  9 13  1  0  0  0  0
  9 35  1  0  0  0  0
 10 36  1  0  0  0  0
 10 37  1  0  0  0  0
 11 15  1  0  0  0  0
 11 39  1  0  0  0  0
 11 40  1  0  0  0  0
 12 41  1  0  0  0  0
 13 14  2  0  0  0  0
 13 30  1  0  0  0  0
 14 29  1  0  0  0  0
 15 16  1  0  0  0  0
 15 42  1  0  0  0  0
 15 43  1  0  0  0  0
 16 21  1  0  0  0  0
 16 44  1  0  0  0  0
 17 18  1  0  0  0  0
 17 45  1  0  0  0  0
 17 46  1  0  0  0  0
 18 47  1  0  0  0  0
 18 48  1  0  0  0  0
 18 49  1  0  0  0  0
 19 20  1  0  0  0  0
 19 50  1  0  0  0  0
 19 51  1  0  0  0  0
 20 52  1  0  0  0  0
 20 53  1  0  0  0  0
 20 54  1  0  0  0  0
 21 22  1  0  0  0  0
 21 55  1  0  0  0  0
 21 56  1  0  0  0  0
 22 57  1  0  0  0  0
 22 58  1  0  0  0  0
 23 24  1  0  0  0  0
 23 59  1  0  0  0  0
 24 25  2  0  0  0  0
 24 60  1  0  0  0  0
 25 26  1  0  0  0  0
 25 61  1  0  0  0  0
 26 27  2  0  0  0  0
 26 62  1  0  0  0  0
 27 63  1  0  0  0  0
 29 34  1  0  0  0  0
M  END
> <ConfScore>
-0.427455

$$$$
4agp


 63 65  0  0  0  0  0  0  0  0999 V2000
  124.0460  107.7170  -44.7230 N   0  3  0  1  0  4  0  0  0  0  0  0
  125.5080  111.7370  -44.1130 N   0  3  0  1  0  4  0  0  0  0  0  0
  125.0505  103.3204  -44.1966 C   0  0  0  1  0  3  0  0  0  0  0  0
  124.8442  102.4140  -43.1047 C   0  0  0  1  0  2  0  0  0  0  0  0
  124.6345  101.6885  -42.1780 C   0  0  0  1  0  2  0  0  0  0  0  0
  124.4313  100.7480  -41.0579 C   0  0  0  1  0  4  0  0  0  0  0  0
  122.0707  100.9353  -40.5823 C   0  0  0  1  0  3  0  0  0  0  0  0
  124.3930  105.3401  -45.3733 C   0  0  0  1  0  3  0  0  0  0  0  0
  126.0468  103.0709  -45.1455 C   0  0  0  1  0  3  0  0  0  0  0  0
  123.4970  106.5410  -45.4510 C   0  0  0  1  0  4  0  0  0  0  0  0
  123.0770  108.8710  -44.7550 C   0  0  0  1  0  4  0  0  0  0  0  0
  124.2184  104.4496  -44.3089 C   0  0  0  1  0  3  0  0  0  0  0  0
  126.1946  103.9812  -46.1993 C   0  0  0  1  0  3  0  0  0  0  0  0
  125.3973  105.1247  -46.3531 C   0  0  0  1  0  3  0  0  0  0  0  0
  123.6820  109.9950  -43.9370 C   0  0  0  1  0  4  0  0  0  0  0  0
  124.9420  110.4210  -44.6780 C   0  0  0  1  0  4  0  0  0  0  0  0
  126.7493  112.2022  -44.8845 C   0  0  0  1  0  4  0  0  0  0  0  0
  127.1767  113.5440  -44.3208 C   0  0  0  1  0  4  0  0  0  0  0  0
  125.8303  111.7191  -42.6247 C   0  0  0  1  0  4  0  0  0  0  0  0
  126.4097  113.0298  -42.1100 C   0  0  0  1  0  4  0  0  0  0  0  0
  125.9830  109.2940  -44.5690 C   0  0  0  1  0  4  0  0  0  0  0  0
  125.3930  108.0860  -45.2720 C   0  0  0  1  0  4  0  0  0  0  0  0
  121.9449  100.2647  -41.8021 C   0  0  0  1  0  3  0  0  0  0  0  0
  120.6834   99.9398  -42.3060 C   0  0  0  1  0  3  0  0  0  0  0  0
  119.5384  100.2859  -41.5914 C   0  0  0  1  0  3  0  0  0  0  0  0
  119.6552  100.9611  -40.3749 C   0  0  0  1  0  3  0  0  0  0  0  0
  120.9207  101.2815  -39.8705 C   0  0  0  1  0  3  0  0  0  0  0  0
  123.3681  101.1913  -40.2108 O   0  0  0  1  0  2  0  0  0  0  0  0
  125.5459  105.9962  -47.3864 O   0  0  0  1  0  2  0  0  0  0  0  0
  127.7170  103.6139  -47.6301 I   0  0  0  1  0  1  0  0  0  0  0  0
  125.3584  100.6816  -40.4694 H   0  0  0  1  0  1  0  0  0  0  0  0
  124.1818   99.7549  -41.4606 H   0  0  0  1  0  1  0  0  0  0  0  0
  124.1710  107.4530  -43.7580 H   0  0  0  1  0  1  0  0  0  0  0  0
  126.2574  105.7055  -47.9443 H   0  0  0  1  0  1  0  0  0  0  0  0
  126.6851  102.1990  -45.0689 H   0  0  0  1  0  1  0  0  0  0  0  0
  122.5213  106.2813  -45.0139 H   0  0  0  1  0  1  0  0  0  0  0  0
  123.3642  106.8120  -46.5077 H   0  0  0  1  0  1  0  0  0  0  0  0
  124.7899  112.4336  -44.2467 H   0  0  0  1  0  1  0  0  0  0  0  0
  122.1150  108.5650  -44.3200 H   0  0  0  1  0  1  0  0  0  0  0  0
  122.9220  109.2020  -45.7920 H   0  0  0  1  0  1  0  0  0  0  0  0
  123.4439  104.6289  -43.5728 H   0  0  0  1  0  1  0  0  0  0  0  0
  123.9340  109.6410  -42.9260 H   0  0  0  1  0  1  0  0  0  0  0  0
  122.9770  110.8370  -43.8650 H   0  0  0  1  0  1  0  0  0  0  0  0
  124.6940  110.5770  -45.7380 H   0  0  0  1  0  1  0  0  0  0  0  0
  126.5078  112.3063  -45.9527 H   0  0  0  1  0  1  0  0  0  0  0  0
  127.5612  111.4707  -44.7621 H   0  0  0  1  0  1  0  0  0  0  0  0
  127.3962  113.4392  -43.2477 H   0  0  0  1  0  1  0  0  0  0  0  0
  126.3654  114.2749  -44.4588 H   0  0  0  1  0  1  0  0  0  0  0  0
  128.0790  113.8929  -44.8467 H   0  0  0  1  0  1  0  0  0  0  0  0
  126.5603  110.9191  -42.4364 H   0  0  0  1  0  1  0  0  0  0  0  0
  124.9044  111.5083  -42.0706 H   0  0  0  1  0  1  0  0  0  0  0  0
  126.6148  112.9420  -41.0327 H   0  0  0  1  0  1  0  0  0  0  0  0
  125.6875  113.8417  -42.2818 H   0  0  0  1  0  1  0  0  0  0  0  0
  127.3446  113.2526  -42.6460 H   0  0  0  1  0  1  0  0  0  0  0  0
  126.1780  109.0590  -43.5110 H   0  0  0  1  0  1  0  0  0  0  0  0
  126.9210  109.5950  -45.0570 H   0  0  0  1  0  1  0  0  0  0  0  0
  125.2890  108.3140  -46.3430 H   0  0  0  1  0  1  0  0  0  0  0  0
  126.0750  107.2320  -45.1430 H   0  0  0  1  0  1  0  0  0  0  0  0
  122.8334   99.9936  -42.3611 H   0  0  0  1  0  1  0  0  0  0  0  0
  120.5947   99.4202  -43.2535 H   0  0  0  1  0  1  0  0  0  0  0  0
  118.5587  100.0314  -41.9800 H   0  0  0  1  0  1  0  0  0  0  0  0
  118.7651  101.2386  -39.8207 H   0  0  0  1  0  1  0  0  0  0  0  0
  121.0086  101.8008  -38.9225 H   0  0  0  1  0  1  0  0  0  0  0  0
  1 10  1  0  0  0  0
  1 11  1  0  0  0  0
  1 22  1  0  0  0  0
  1 33  1  0  0  0  0
  2 16  1  0  0  0  0
  2 17  1  0  0  0  0
  2 19  1  0  0  0  0
  2 38  1  0  0  0  0
  3  4  1  0  0  0  0
  3  9  2  0  0  0  0
  3 12  1  0  0  0  0
  4  5  3  0  0  0  0
  5  6  1  0  0  0  0
  6 28  1  0  0  0  0
  6 31  1  0  0  0  0
  6 32  1  0  0  0  0
  7 23  2  0  0  0  0
  7 27  1  0  0  0  0
  7 28  1  0  0  0  0
  8 10  1  0  0  0  0
  8 12  2  0  0  0  0
  8 14  1  0  0  0  0
  9 13  1  0  0  0  0
  9 35  1  0  0  0  0
 10 36  1  0  0  0  0
 10 37  1  0  0  0  0
 11 15  1  0  0  0  0
 11 39  1  0  0  0  0
 11 40  1  0  0  0  0
 12 41  1  0  0  0  0
 13 14  2  0  0  0  0
 13 30  1  0  0  0  0
 14 29  1  0  0  0  0
 15 16  1  0  0  0  0
 15 42  1  0  0  0  0
 15 43  1  0  0  0  0
 16 21  1  0  0  0  0
 16 44  1  0  0  0  0
 17 18  1  0  0  0  0
 17 45  1  0  0  0  0
 17 46  1  0  0  0  0
 18 47  1  0  0  0  0
 18 48  1  0  0  0  0
 18 49  1  0  0  0  0
 19 20  1  0  0  0  0
 19 50  1  0  0  0  0
 19 51  1  0  0  0  0
 20 52  1  0  0  0  0
 20 53  1  0  0  0  0
 20 54  1  0  0  0  0
 21 22  1  0  0  0  0
 21 55  1  0  0  0  0
 21 56  1  0  0  0  0
 22 57  1  0  0  0  0
 22 58  1  0  0  0  0
 23 24  1  0  0  0  0
 23 59  1  0  0  0  0
 24 25  2  0  0  0  0
 24 60  1  0  0  0  0
 25 26  1  0  0  0  0
 25 61  1  0  0  0  0
 26 27  2  0  0  0  0
 26 62  1  0  0  0  0
 27 63  1  0  0  0  0
 29 34  1  0  0  0  0
M  END
> <ConfScore>
-0.421042

$$$$
4agp


 63 65  0  0  0  0  0  0  0  0999 V2000
  124.0460  107.7170  -44.7230 N   0  3  0  1  0  4  0  0  0  0  0  0
  125.5080  111.7370  -44.1130 N   0  3  0  1  0  4  0  0  0  0  0  0
  125.0424  106.1938  -48.8935 C   0  0  0  1  0  3  0  0  0  0  0  0
  126.2314  105.6213  -49.4547 C   0  0  0  1  0  2  0  0  0  0  0  0
  127.2367  105.1304  -49.8756 C   0  0  0  1  0  2  0  0  0  0  0  0
  128.4573  104.5443  -50.4649 C   0  0  0  1  0  4  0  0  0  0  0  0
  130.4656  103.3708  -49.8143 C   0  0  0  1  0  3  0  0  0  0  0  0
  123.6759  106.6430  -46.9371 C   0  0  0  1  0  3  0  0  0  0  0  0
  124.0957  106.8097  -49.7178 C   0  0  0  1  0  3  0  0  0  0  0  0
  123.4970  106.5410  -45.4510 C   0  0  0  1  0  4  0  0  0  0  0  0
  123.0770  108.8710  -44.7550 C   0  0  0  1  0  4  0  0  0  0  0  0
  124.8349  106.1033  -47.5046 C   0  0  0  1  0  3  0  0  0  0  0  0
  122.9459  107.3386  -49.1184 C   0  0  0  1  0  3  0  0  0  0  0  0
  122.6945  107.2814  -47.7398 C   0  0  0  1  0  3  0  0  0  0  0  0
  123.6820  109.9950  -43.9370 C   0  0  0  1  0  4  0  0  0  0  0  0
  124.9420  110.4210  -44.6780 C   0  0  0  1  0  4  0  0  0  0  0  0
  125.9435  111.5893  -42.6498 C   0  0  0  1  0  4  0  0  0  0  0  0
  127.0042  110.5070  -42.5828 C   0  0  0  1  0  4  0  0  0  0  0  0
  124.5879  112.9445  -44.2342 C   0  0  0  1  0  4  0  0  0  0  0  0
  123.2812  112.7954  -43.4671 C   0  0  0  1  0  4  0  0  0  0  0  0
  125.9830  109.2940  -44.5690 C   0  0  0  1  0  4  0  0  0  0  0  0
  125.3930  108.0860  -45.2720 C   0  0  0  1  0  4  0  0  0  0  0  0
  130.7104  103.3752  -51.1903 C   0  0  0  1  0  3  0  0  0  0  0  0
  131.8739  102.7991  -51.7054 C   0  0  0  1  0  3  0  0  0  0  0  0
  132.8002  102.2133  -50.8449 C   0  0  0  1  0  3  0  0  0  0  0  0
  132.5603  102.1997  -49.4696 C   0  0  0  1  0  3  0  0  0  0  0  0
  131.3956  102.7813  -48.9561 C   0  0  0  1  0  3  0  0  0  0  0  0
  129.2841  103.9694  -49.4499 O   0  0  0  1  0  2  0  0  0  0  0  0
  121.5693  107.7917  -47.1716 O   0  0  0  1  0  2  0  0  0  0  0  0
  121.5168  108.2889  -50.3651 I   0  0  0  1  0  1  0  0  0  0  0  0
  129.0208  105.3323  -50.9864 H   0  0  0  1  0  1  0  0  0  0  0  0
  128.1718  103.7620  -51.1841 H   0  0  0  1  0  1  0  0  0  0  0  0
  124.1710  107.4530  -43.7580 H   0  0  0  1  0  1  0  0  0  0  0  0
  121.0243  108.1806  -47.8452 H   0  0  0  1  0  1  0  0  0  0  0  0
  124.2459  106.8752  -50.7886 H   0  0  0  1  0  1  0  0  0  0  0  0
  124.0119  105.6360  -45.0955 H   0  0  0  1  0  1  0  0  0  0  0  0
  122.4232  106.4613  -45.2314 H   0  0  0  1  0  1  0  0  0  0  0  0
  126.3337  111.9449  -44.6550 H   0  0  0  1  0  1  0  0  0  0  0  0
  122.1150  108.5650  -44.3200 H   0  0  0  1  0  1  0  0  0  0  0  0
  122.9220  109.2020  -45.7920 H   0  0  0  1  0  1  0  0  0  0  0  0
  125.5708  105.6164  -46.8761 H   0  0  0  1  0  1  0  0  0  0  0  0
  123.9340  109.6410  -42.9260 H   0  0  0  1  0  1  0  0  0  0  0  0
  122.9770  110.8370  -43.8650 H   0  0  0  1  0  1  0  0  0  0  0  0
  124.6940  110.5770  -45.7380 H   0  0  0  1  0  1  0  0  0  0  0  0
  125.0803  111.3043  -42.0302 H   0  0  0  1  0  1  0  0  0  0  0  0
  126.3579  112.5404  -42.2855 H   0  0  0  1  0  1  0  0  0  0  0  0
  127.3351  110.3801  -41.5411 H   0  0  0  1  0  1  0  0  0  0  0  0
  127.8633  110.7964  -43.2071 H   0  0  0  1  0  1  0  0  0  0  0  0
  126.5849  109.5581  -42.9519 H   0  0  0  1  0  1  0  0  0  0  0  0
  124.3514  113.0964  -45.2969 H   0  0  0  1  0  1  0  0  0  0  0  0
  125.1183  113.8264  -43.8471 H   0  0  0  1  0  1  0  0  0  0  0  0
  122.6726  113.7023  -43.5998 H   0  0  0  1  0  1  0  0  0  0  0  0
  123.4986  112.6518  -42.3982 H   0  0  0  1  0  1  0  0  0  0  0  0
  122.7299  111.9227  -43.8486 H   0  0  0  1  0  1  0  0  0  0  0  0
  126.1780  109.0590  -43.5110 H   0  0  0  1  0  1  0  0  0  0  0  0
  126.9210  109.5950  -45.0570 H   0  0  0  1  0  1  0  0  0  0  0  0
  125.2890  108.3140  -46.3430 H   0  0  0  1  0  1  0  0  0  0  0  0
  126.0750  107.2320  -45.1430 H   0  0  0  1  0  1  0  0  0  0  0  0
  129.9922  103.8300  -51.8631 H   0  0  0  1  0  1  0  0  0  0  0  0
  132.0557  102.8061  -52.7743 H   0  0  0  1  0  1  0  0  0  0  0  0
  133.7053  101.7687  -51.2434 H   0  0  0  1  0  1  0  0  0  0  0  0
  133.2760  101.7372  -48.7986 H   0  0  0  1  0  1  0  0  0  0  0  0
  131.2147  102.7744  -47.8868 H   0  0  0  1  0  1  0  0  0  0  0  0
  1 10  1  0  0  0  0
  1 11  1  0  0  0  0
  1 22  1  0  0  0  0
  1 33  1  0  0  0  0
  2 16  1  0  0  0  0
  2 17  1  0  0  0  0
  2 19  1  0  0  0  0
  2 38  1  0  0  0  0
  3  4  1  0  0  0  0
  3  9  2  0  0  0  0
  3 12  1  0  0  0  0
  4  5  3  0  0  0  0
  5  6  1  0  0  0  0
  6 28  1  0  0  0  0
  6 31  1  0  0  0  0
  6 32  1  0  0  0  0
  7 23  2  0  0  0  0
  7 27  1  0  0  0  0
  7 28  1  0  0  0  0
  8 10  1  0  0  0  0
  8 12  2  0  0  0  0
  8 14  1  0  0  0  0
  9 13  1  0  0  0  0
  9 35  1  0  0  0  0
 10 36  1  0  0  0  0
 10 37  1  0  0  0  0
 11 15  1  0  0  0  0
 11 39  1  0  0  0  0
 11 40  1  0  0  0  0
 12 41  1  0  0  0  0
 13 14  2  0  0  0  0
 13 30  1  0  0  0  0
 14 29  1  0  0  0  0
 15 16  1  0  0  0  0
 15 42  1  0  0  0  0
 15 43  1  0  0  0  0
 16 21  1  0  0  0  0
 16 44  1  0  0  0  0
 17 18  1  0  0  0  0
 17 45  1  0  0  0  0
 17 46  1  0  0  0  0
 18 47  1  0  0  0  0
 18 48  1  0  0  0  0
 18 49  1  0  0  0  0
 19 20  1  0  0  0  0
 19 50  1  0  0  0  0
 19 51  1  0  0  0  0
 20 52  1  0  0  0  0
 20 53  1  0  0  0  0
 20 54  1  0  0  0  0
 21 22  1  0  0  0  0
 21 55  1  0  0  0  0
 21 56  1  0  0  0  0
 22 57  1  0  0  0  0
 22 58  1  0  0  0  0
 23 24  1  0  0  0  0
 23 59  1  0  0  0  0
 24 25  2  0  0  0  0
 24 60  1  0  0  0  0
 25 26  1  0  0  0  0
 25 61  1  0  0  0  0
 26 27  2  0  0  0  0
 26 62  1  0  0  0  0
 27 63  1  0  0  0  0
 29 34  1  0  0  0  0
M  END
> <ConfScore>
-0.404818

$$$$
4agp


 63 65  0  0  0  0  0  0  0  0999 V2000
  124.0460  107.7170  -44.7230 N   0  3  0  1  0  4  0  0  0  0  0  0
  125.5080  111.7370  -44.1130 N   0  3  0  1  0  4  0  0  0  0  0  0
  126.5336  104.3172  -45.8912 C   0  0  0  1  0  3  0  0  0  0  0  0
  127.8449  104.4358  -46.4593 C   0  0  0  1  0  2  0  0  0  0  0  0
  128.9266  104.5824  -46.9463 C   0  0  0  1  0  2  0  0  0  0  0  0
  130.2794  104.6928  -47.5280 C   0  0  0  1  0  4  0  0  0  0  0  0
  130.8208  107.0317  -47.2631 C   0  0  0  1  0  3  0  0  0  0  0  0
  124.3930  105.3401  -45.3733 C   0  0  0  1  0  3  0  0  0  0  0  0
  126.1296  103.1237  -45.2851 C   0  0  0  1  0  3  0  0  0  0  0  0
  123.4970  106.5410  -45.4510 C   0  0  0  1  0  4  0  0  0  0  0  0
  123.0770  108.8710  -44.7550 C   0  0  0  1  0  4  0  0  0  0  0  0
  125.6718  105.4289  -45.9331 C   0  0  0  1  0  3  0  0  0  0  0  0
  124.8438  103.0682  -44.7331 C   0  0  0  1  0  3  0  0  0  0  0  0
  123.9441  104.1439  -44.7548 C   0  0  0  1  0  3  0  0  0  0  0  0
  123.6820  109.9950  -43.9370 C   0  0  0  1  0  4  0  0  0  0  0  0
  124.9420  110.4210  -44.6780 C   0  0  0  1  0  4  0  0  0  0  0  0
  126.7493  112.2022  -44.8845 C   0  0  0  1  0  4  0  0  0  0  0  0
  127.1767  113.5440  -44.3208 C   0  0  0  1  0  4  0  0  0  0  0  0
  125.8303  111.7191  -42.6247 C   0  0  0  1  0  4  0  0  0  0  0  0
  126.4097  113.0298  -42.1100 C   0  0  0  1  0  4  0  0  0  0  0  0
  125.9830  109.2940  -44.5690 C   0  0  0  1  0  4  0  0  0  0  0  0
  125.3930  108.0860  -45.2720 C   0  0  0  1  0  4  0  0  0  0  0  0
  130.9053  106.6843  -45.9120 C   0  0  0  1  0  3  0  0  0  0  0  0
  131.2377  107.6434  -44.9525 C   0  0  0  1  0  3  0  0  0  0  0  0
  131.4868  108.9584  -45.3404 C   0  0  0  1  0  3  0  0  0  0  0  0
  131.3988  109.3148  -46.6874 C   0  0  0  1  0  3  0  0  0  0  0  0
  131.0696  108.3507  -47.6469 C   0  0  0  1  0  3  0  0  0  0  0  0
  130.4836  105.9903  -48.0930 O   0  0  0  1  0  2  0  0  0  0  0  0
  122.7010  104.0793  -44.2072 O   0  0  0  1  0  2  0  0  0  0  0  0
  124.2227  101.2527  -43.8288 I   0  0  0  1  0  1  0  0  0  0  0  0
  130.3971  103.9334  -48.3152 H   0  0  0  1  0  1  0  0  0  0  0  0
  131.0271  104.5207  -46.7393 H   0  0  0  1  0  1  0  0  0  0  0  0
  124.1710  107.4530  -43.7580 H   0  0  0  1  0  1  0  0  0  0  0  0
  122.5630  103.2147  -43.8392 H   0  0  0  1  0  1  0  0  0  0  0  0
  126.7915  102.2672  -45.2424 H   0  0  0  1  0  1  0  0  0  0  0  0
  122.5213  106.2813  -45.0139 H   0  0  0  1  0  1  0  0  0  0  0  0
  123.3642  106.8120  -46.5077 H   0  0  0  1  0  1  0  0  0  0  0  0
  124.7899  112.4336  -44.2467 H   0  0  0  1  0  1  0  0  0  0  0  0
  122.1150  108.5650  -44.3200 H   0  0  0  1  0  1  0  0  0  0  0  0
  122.9220  109.2020  -45.7920 H   0  0  0  1  0  1  0  0  0  0  0  0
  125.9979  106.3517  -46.3976 H   0  0  0  1  0  1  0  0  0  0  0  0
  123.9340  109.6410  -42.9260 H   0  0  0  1  0  1  0  0  0  0  0  0
  122.9770  110.8370  -43.8650 H   0  0  0  1  0  1  0  0  0  0  0  0
  124.6940  110.5770  -45.7380 H   0  0  0  1  0  1  0  0  0  0  0  0
  126.5078  112.3063  -45.9527 H   0  0  0  1  0  1  0  0  0  0  0  0
  127.5612  111.4707  -44.7621 H   0  0  0  1  0  1  0  0  0  0  0  0
  127.3962  113.4392  -43.2477 H   0  0  0  1  0  1  0  0  0  0  0  0
  126.3654  114.2749  -44.4588 H   0  0  0  1  0  1  0  0  0  0  0  0
  128.0790  113.8929  -44.8467 H   0  0  0  1  0  1  0  0  0  0  0  0
  126.5603  110.9191  -42.4364 H   0  0  0  1  0  1  0  0  0  0  0  0
  124.9044  111.5083  -42.0706 H   0  0  0  1  0  1  0  0  0  0  0  0
  126.6148  112.9420  -41.0327 H   0  0  0  1  0  1  0  0  0  0  0  0
  125.6875  113.8417  -42.2818 H   0  0  0  1  0  1  0  0  0  0  0  0
  127.3446  113.2526  -42.6460 H   0  0  0  1  0  1  0  0  0  0  0  0
  126.1780  109.0590  -43.5110 H   0  0  0  1  0  1  0  0  0  0  0  0
  126.9210  109.5950  -45.0570 H   0  0  0  1  0  1  0  0  0  0  0  0
  125.2890  108.3140  -46.3430 H   0  0  0  1  0  1  0  0  0  0  0  0
  126.0750  107.2320  -45.1430 H   0  0  0  1  0  1  0  0  0  0  0  0
  130.7122  105.6623  -45.6061 H   0  0  0  1  0  1  0  0  0  0  0  0
  131.3003  107.3657  -43.9063 H   0  0  0  1  0  1  0  0  0  0  0  0
  131.7481  109.7031  -44.5969 H   0  0  0  1  0  1  0  0  0  0  0  0
  131.5844  110.3395  -46.9908 H   0  0  0  1  0  1  0  0  0  0  0  0
  131.0077  108.6291  -48.6932 H   0  0  0  1  0  1  0  0  0  0  0  0
  1 10  1  0  0  0  0
  1 11  1  0  0  0  0
  1 22  1  0  0  0  0
  1 33  1  0  0  0  0
  2 16  1  0  0  0  0
  2 17  1  0  0  0  0
  2 19  1  0  0  0  0
  2 38  1  0  0  0  0
  3  4  1  0  0  0  0
  3  9  2  0  0  0  0
  3 12  1  0  0  0  0
  4  5  3  0  0  0  0
  5  6  1  0  0  0  0
  6 28  1  0  0  0  0
  6 31  1  0  0  0  0
  6 32  1  0  0  0  0
  7 23  2  0  0  0  0
  7 27  1  0  0  0  0
  7 28  1  0  0  0  0
  8 10  1  0  0  0  0
  8 12  2  0  0  0  0
  8 14  1  0  0  0  0
  9 13  1  0  0  0  0
  9 35  1  0  0  0  0
 10 36  1  0  0  0  0
 10 37  1  0  0  0  0
 11 15  1  0  0  0  0
 11 39  1  0  0  0  0
 11 40  1  0  0  0  0
 12 41  1  0  0  0  0
 13 14  2  0  0  0  0
 13 30  1  0  0  0  0
 14 29  1  0  0  0  0
 15 16  1  0  0  0  0
 15 42  1  0  0  0  0
 15 43  1  0  0  0  0
 16 21  1  0  0  0  0
 16 44  1  0  0  0  0
 17 18  1  0  0  0  0
 17 45  1  0  0  0  0
 17 46  1  0  0  0  0
 18 47  1  0  0  0  0
 18 48  1  0  0  0  0
 18 49  1  0  0  0  0
 19 20  1  0  0  0  0
 19 50  1  0  0  0  0
 19 51  1  0  0  0  0
 20 52  1  0  0  0  0
 20 53  1  0  0  0  0
 20 54  1  0  0  0  0
 21 22  1  0  0  0  0
 21 55  1  0  0  0  0
 21 56  1  0  0  0  0
 22 57  1  0  0  0  0
 22 58  1  0  0  0  0
 23 24  1  0  0  0  0
 23 59  1  0  0  0  0
 24 25  2  0  0  0  0
 24 60  1  0  0  0  0
 25 26  1  0  0  0  0
 25 61  1  0  0  0  0
 26 27  2  0  0  0  0
 26 62  1  0  0  0  0
 27 63  1  0  0  0  0
 29 34  1  0  0  0  0
M  END
> <ConfScore>
-0.398851

$$$$
4agp


 63 65  0  0  0  0  0  0  0  0999 V2000
   90.4980   98.3810  -44.6910 N   0  3  0  1  0  4  0  0  0  0  0  0
   92.0484  102.3740  -44.2389 N   0  3  0  1  0  4  0  0  0  0  0  0
   91.3281   96.8478  -48.8452 C   0  0  0  1  0  3  0  0  0  0  0  0
   92.5234   96.3572  -49.4673 C   0  0  0  1  0  2  0  0  0  0  0  0
   93.5367   95.9345  -49.9399 C   0  0  0  1  0  2  0  0  0  0  0  0
   94.7632   95.4327  -50.5915 C   0  0  0  1  0  4  0  0  0  0  0  0
   96.8620   94.3673  -50.0499 C   0  0  0  1  0  3  0  0  0  0  0  0
   90.0146   97.2191  -46.8325 C   0  0  0  1  0  3  0  0  0  0  0  0
   90.3230   97.4240  -49.6327 C   0  0  0  1  0  3  0  0  0  0  0  0
   89.9050   97.1660  -45.3350 C   0  0  0  1  0  4  0  0  0  0  0  0
   89.5430   99.5450  -44.7170 C   0  0  0  1  0  4  0  0  0  0  0  0
   91.1773   96.7459  -47.4538 C   0  0  0  1  0  3  0  0  0  0  0  0
   89.1636   97.8895  -48.9913 C   0  0  0  1  0  3  0  0  0  0  0  0
   88.9747   97.8086  -47.5988 C   0  0  0  1  0  3  0  0  0  0  0  0
   90.1750  100.7310  -44.0050 C   0  0  0  1  0  4  0  0  0  0  0  0
   91.4300  101.0810  -44.8020 C   0  0  0  1  0  4  0  0  0  0  0  0
   93.3141  102.7813  -45.0034 C   0  0  0  1  0  4  0  0  0  0  0  0
   93.8483  104.0573  -44.3809 C   0  0  0  1  0  4  0  0  0  0  0  0
   92.3591  102.3495  -42.7482 C   0  0  0  1  0  4  0  0  0  0  0  0
   91.1259  102.1847  -41.8705 C   0  0  0  1  0  4  0  0  0  0  0  0
   92.4510   99.9400  -44.6950 C   0  0  0  1  0  4  0  0  0  0  0  0
   91.8210   98.7070  -45.3220 C   0  0  0  1  0  4  0  0  0  0  0  0
   97.0603   94.4397  -51.4315 C   0  0  0  1  0  3  0  0  0  0  0  0
   98.2357   93.9499  -52.0058 C   0  0  0  1  0  3  0  0  0  0  0  0
   99.2204   93.3829  -51.1994 C   0  0  0  1  0  3  0  0  0  0  0  0
   99.0274   93.3016  -49.8190 C   0  0  0  1  0  3  0  0  0  0  0  0
   97.8506   93.7969  -49.2460 C   0  0  0  1  0  3  0  0  0  0  0  0
   95.6625   94.8844  -49.6247 O   0  0  0  1  0  2  0  0  0  0  0  0
   87.8413   98.2765  -47.0108 O   0  0  0  1  0  2  0  0  0  0  0  0
   87.6286   98.7530  -50.1737 I   0  0  0  1  0  1  0  0  0  0  0  0
   95.2589   96.2630  -51.1161 H   0  0  0  1  0  1  0  0  0  0  0  0
   94.4929   94.6511  -51.3173 H   0  0  0  1  0  1  0  0  0  0  0  0
   90.6654   98.1804  -43.7172 H   0  0  0  1  0  1  0  0  0  0  0  0
   87.5797   97.6851  -46.3153 H   0  0  0  1  0  1  0  0  0  0  0  0
   90.4370   97.5082  -50.7067 H   0  0  0  1  0  1  0  0  0  0  0  0
   88.8424   97.0989  -45.0579 H   0  0  0  1  0  1  0  0  0  0  0  0
   90.4360   96.2755  -44.9709 H   0  0  0  1  0  1  0  0  0  0  0  0
   91.3621  103.1004  -44.3811 H   0  0  0  1  0  1  0  0  0  0  0  0
   88.6101   99.2656  -44.2072 H   0  0  0  1  0  1  0  0  0  0  0  0
   89.3242   99.8170  -45.7597 H   0  0  0  1  0  1  0  0  0  0  0  0
   91.9637   96.2991  -46.8574 H   0  0  0  1  0  1  0  0  0  0  0  0
   90.4414  100.4592  -42.9725 H   0  0  0  1  0  1  0  0  0  0  0  0
   89.4798  101.5841  -43.9926 H   0  0  0  1  0  1  0  0  0  0  0  0
   91.1613  101.2320  -45.8577 H   0  0  0  1  0  1  0  0  0  0  0  0
   93.0710  102.9563  -46.0620 H   0  0  0  1  0  1  0  0  0  0  0  0
   94.0688  101.9852  -44.9277 H   0  0  0  1  0  1  0  0  0  0  0  0
   94.7692  104.3624  -44.9002 H   0  0  0  1  0  1  0  0  0  0  0  0
   94.0690  103.8817  -43.3170 H   0  0  0  1  0  1  0  0  0  0  0  0
   93.0947  104.8547  -44.4731 H   0  0  0  1  0  1  0  0  0  0  0  0
   92.8524  103.2946  -42.4801 H   0  0  0  1  0  1  0  0  0  0  0  0
   93.0411  101.5106  -42.5486 H   0  0  0  1  0  1  0  0  0  0  0  0
   91.4292  102.1579  -40.8133 H   0  0  0  1  0  1  0  0  0  0  0  0
   90.6147  101.2458  -42.1302 H   0  0  0  1  0  1  0  0  0  0  0  0
   90.4424  103.0311  -42.0363 H   0  0  0  1  0  1  0  0  0  0  0  0
   92.6881   99.7451  -43.6375 H   0  0  0  1  0  1  0  0  0  0  0  0
   93.3710  100.2073  -45.2341 H   0  0  0  1  0  1  0  0  0  0  0  0
   91.6686   98.8909  -46.3957 H   0  0  0  1  0  1  0  0  0  0  0  0
   92.5006   97.8518  -45.1886 H   0  0  0  1  0  1  0  0  0  0  0  0
   96.2966   94.8801  -52.0624 H   0  0  0  1  0  1  0  0  0  0  0  0
   98.3812   94.0093  -53.0786 H   0  0  0  1  0  1  0  0  0  0  0  0
  100.1345   93.0054  -51.6438 H   0  0  0  1  0  1  0  0  0  0  0  0
   99.7891   92.8534  -49.1902 H   0  0  0  1  0  1  0  0  0  0  0  0
   97.7060   93.7377  -48.1729 H   0  0  0  1  0  1  0  0  0  0  0  0
  1 10  1  0  0  0  0
  1 11  1  0  0  0  0
  1 22  1  0  0  0  0
  1 33  1  0  0  0  0
  2 16  1  0  0  0  0
  2 17  1  0  0  0  0
  2 19  1  0  0  0  0
  2 38  1  0  0  0  0
  3  4  1  0  0  0  0
  3  9  2  0  0  0  0
  3 12  1  0  0  0  0
  4  5  3  0  0  0  0
  5  6  1  0  0  0  0
  6 28  1  0  0  0  0
  6 31  1  0  0  0  0
  6 32  1  0  0  0  0
  7 23  2  0  0  0  0
  7 27  1  0  0  0  0
  7 28  1  0  0  0  0
  8 10  1  0  0  0  0
  8 12  2  0  0  0  0
  8 14  1  0  0  0  0
  9 13  1  0  0  0  0
  9 35  1  0  0  0  0
 10 36  1  0  0  0  0
 10 37  1  0  0  0  0
 11 15  1  0  0  0  0
 11 39  1  0  0  0  0
 11 40  1  0  0  0  0
 12 41  1  0  0  0  0
 13 14  2  0  0  0  0
 13 30  1  0  0  0  0
 14 29  1  0  0  0  0
 15 16  1  0  0  0  0
 15 42  1  0  0  0  0
 15 43  1  0  0  0  0
 16 21  1  0  0  0  0
 16 44  1  0  0  0  0
 17 18  1  0  0  0  0
 17 45  1  0  0  0  0
 17 46  1  0  0  0  0
 18 47  1  0  0  0  0
 18 48  1  0  0  0  0
 18 49  1  0  0  0  0
 19 20  1  0  0  0  0
 19 50  1  0  0  0  0
 19 51  1  0  0  0  0
 20 52  1  0  0  0  0
 20 53  1  0  0  0  0
 20 54  1  0  0  0  0
 21 22  1  0  0  0  0
 21 55  1  0  0  0  0
 21 56  1  0  0  0  0
 22 57  1  0  0  0  0
 22 58  1  0  0  0  0
 23 24  1  0  0  0  0
 23 59  1  0  0  0  0
 24 25  2  0  0  0  0
 24 60  1  0  0  0  0
 25 26  1  0  0  0  0
 25 61  1  0  0  0  0
 26 27  2  0  0  0  0
 26 62  1  0  0  0  0
 27 63  1  0  0  0  0
 29 34  1  0  0  0  0
M  END
> <ConfScore>
-0.395212

$$$$
4agp


 63 65  0  0  0  0  0  0  0  0999 V2000
   90.4980   98.3810  -44.6910 N   0  3  0  1  0  4  0  0  0  0  0  0
   92.0484  102.3740  -44.2389 N   0  3  0  1  0  4  0  0  0  0  0  0
   90.9764   94.4793  -42.8688 C   0  0  0  1  0  3  0  0  0  0  0  0
   90.8437   94.2094  -41.4667 C   0  0  0  1  0  2  0  0  0  0  0  0
   90.7053   94.0269  -40.2935 C   0  0  0  1  0  2  0  0  0  0  0  0
   90.5754   93.7386  -38.8511 C   0  0  0  1  0  4  0  0  0  0  0  0
   89.5556   94.6350  -36.8536 C   0  0  0  1  0  3  0  0  0  0  0  0
   90.4948   95.8988  -44.7838 C   0  0  0  1  0  3  0  0  0  0  0  0
   91.7050   93.5984  -43.6785 C   0  0  0  1  0  3  0  0  0  0  0  0
   89.9050   97.1660  -45.3350 C   0  0  0  1  0  4  0  0  0  0  0  0
   89.5430   99.5450  -44.7170 C   0  0  0  1  0  4  0  0  0  0  0  0
   90.3751   95.6232  -43.4158 C   0  0  0  1  0  3  0  0  0  0  0  0
   91.8107   93.8906  -45.0481 C   0  0  0  1  0  3  0  0  0  0  0  0
   91.2253   95.0282  -45.6350 C   0  0  0  1  0  3  0  0  0  0  0  0
   90.1750  100.7310  -44.0050 C   0  0  0  1  0  4  0  0  0  0  0  0
   91.4300  101.0810  -44.8020 C   0  0  0  1  0  4  0  0  0  0  0  0
   93.2950  102.7996  -45.0245 C   0  0  0  1  0  4  0  0  0  0  0  0
   92.8880  103.0157  -46.4697 C   0  0  0  1  0  4  0  0  0  0  0  0
   92.3890  102.3382  -42.7550 C   0  0  0  1  0  4  0  0  0  0  0  0
   91.2022  101.9964  -41.8645 C   0  0  0  1  0  4  0  0  0  0  0  0
   92.4510   99.9400  -44.6950 C   0  0  0  1  0  4  0  0  0  0  0  0
   91.8210   98.7070  -45.3220 C   0  0  0  1  0  4  0  0  0  0  0  0
   88.7891   95.6747  -36.3200 C   0  0  0  1  0  3  0  0  0  0  0  0
   88.4638   95.6912  -34.9617 C   0  0  0  1  0  3  0  0  0  0  0  0
   88.9057   94.6660  -34.1279 C   0  0  0  1  0  3  0  0  0  0  0  0
   89.6767   93.6266  -34.6520 C   0  0  0  1  0  3  0  0  0  0  0  0
   89.9975   93.6107  -36.0141 C   0  0  0  1  0  3  0  0  0  0  0  0
   89.8000   94.7485  -38.2005 O   0  0  0  1  0  2  0  0  0  0  0  0
   91.3544   95.2834  -46.9645 O   0  0  0  1  0  2  0  0  0  0  0  0
   92.9008   92.5583  -46.2875 I   0  0  0  1  0  1  0  0  0  0  0  0
   91.5773   93.7045  -38.3980 H   0  0  0  1  0  1  0  0  0  0  0  0
   90.0816   92.7640  -38.7203 H   0  0  0  1  0  1  0  0  0  0  0  0
   90.6654   98.1804  -43.7172 H   0  0  0  1  0  1  0  0  0  0  0  0
   90.5345   95.6247  -47.3012 H   0  0  0  1  0  1  0  0  0  0  0  0
   92.1740   92.7163  -43.2597 H   0  0  0  1  0  1  0  0  0  0  0  0
   90.0974   97.2069  -46.4175 H   0  0  0  1  0  1  0  0  0  0  0  0
   88.8209   97.1614  -45.1551 H   0  0  0  1  0  1  0  0  0  0  0  0
   91.3532  103.0956  -44.3604 H   0  0  0  1  0  1  0  0  0  0  0  0
   88.6101   99.2656  -44.2072 H   0  0  0  1  0  1  0  0  0  0  0  0
   89.3242   99.8170  -45.7597 H   0  0  0  1  0  1  0  0  0  0  0  0
   89.8158   96.2962  -42.7770 H   0  0  0  1  0  1  0  0  0  0  0  0
   90.4414  100.4592  -42.9725 H   0  0  0  1  0  1  0  0  0  0  0  0
   89.4798  101.5841  -43.9926 H   0  0  0  1  0  1  0  0  0  0  0  0
   91.1613  101.2320  -45.8577 H   0  0  0  1  0  1  0  0  0  0  0  0
   94.0601  102.0113  -44.9665 H   0  0  0  1  0  1  0  0  0  0  0  0
   93.6988  103.7334  -44.6074 H   0  0  0  1  0  1  0  0  0  0  0  0
   92.1073  103.7895  -46.5203 H   0  0  0  1  0  1  0  0  0  0  0  0
   92.4976  102.0742  -46.8854 H   0  0  0  1  0  1  0  0  0  0  0  0
   93.7634  103.3401  -47.0535 H   0  0  0  1  0  1  0  0  0  0  0  0
   92.7701  103.3267  -42.4616 H   0  0  0  1  0  1  0  0  0  0  0  0
   93.1709  101.5818  -42.5956 H   0  0  0  1  0  1  0  0  0  0  0  0
   91.5237  101.9879  -40.8124 H   0  0  0  1  0  1  0  0  0  0  0  0
   90.8130  101.0045  -42.1382 H   0  0  0  1  0  1  0  0  0  0  0  0
   90.4120  102.7500  -42.0021 H   0  0  0  1  0  1  0  0  0  0  0  0
   92.6881   99.7451  -43.6375 H   0  0  0  1  0  1  0  0  0  0  0  0
   93.3710  100.2073  -45.2341 H   0  0  0  1  0  1  0  0  0  0  0  0
   91.6686   98.8909  -46.3957 H   0  0  0  1  0  1  0  0  0  0  0  0
   92.5006   97.8518  -45.1886 H   0  0  0  1  0  1  0  0  0  0  0  0
   88.4434   96.4743  -36.9654 H   0  0  0  1  0  1  0  0  0  0  0  0
   87.8694   96.5021  -34.5557 H   0  0  0  1  0  1  0  0  0  0  0  0
   88.6511   94.6760  -33.0740 H   0  0  0  1  0  1  0  0  0  0  0  0
   90.0285   92.8317  -34.0034 H   0  0  0  1  0  1  0  0  0  0  0  0
   90.5916   92.7991  -36.4196 H   0  0  0  1  0  1  0  0  0  0  0  0
  1 10  1  0  0  0  0
  1 11  1  0  0  0  0
  1 22  1  0  0  0  0
  1 33  1  0  0  0  0
  2 16  1  0  0  0  0
  2 17  1  0  0  0  0
  2 19  1  0  0  0  0
  2 38  1  0  0  0  0
  3  4  1  0  0  0  0
  3  9  2  0  0  0  0
  3 12  1  0  0  0  0
  4  5  3  0  0  0  0
  5  6  1  0  0  0  0
  6 28  1  0  0  0  0
  6 31  1  0  0  0  0
  6 32  1  0  0  0  0
  7 23  2  0  0  0  0
  7 27  1  0  0  0  0
  7 28  1  0  0  0  0
  8 10  1  0  0  0  0
  8 12  2  0  0  0  0
  8 14  1  0  0  0  0
  9 13  1  0  0  0  0
  9 35  1  0  0  0  0
 10 36  1  0  0  0  0
 10 37  1  0  0  0  0
 11 15  1  0  0  0  0
 11 39  1  0  0  0  0
 11 40  1  0  0  0  0
 12 41  1  0  0  0  0
 13 14  2  0  0  0  0
 13 30  1  0  0  0  0
 14 29  1  0  0  0  0
 15 16  1  0  0  0  0
 15 42  1  0  0  0  0
 15 43  1  0  0  0  0
 16 21  1  0  0  0  0
 16 44  1  0  0  0  0
 17 18  1  0  0  0  0
 17 45  1  0  0  0  0
 17 46  1  0  0  0  0
 18 47  1  0  0  0  0
 18 48  1  0  0  0  0
 18 49  1  0  0  0  0
 19 20  1  0  0  0  0
 19 50  1  0  0  0  0
 19 51  1  0  0  0  0
 20 52  1  0  0  0  0
 20 53  1  0  0  0  0
 20 54  1  0  0  0  0
 21 22  1  0  0  0  0
 21 55  1  0  0  0  0
 21 56  1  0  0  0  0
 22 57  1  0  0  0  0
 22 58  1  0  0  0  0
 23 24  1  0  0  0  0
 23 59  1  0  0  0  0
 24 25  2  0  0  0  0
 24 60  1  0  0  0  0
 25 26  1  0  0  0  0
 25 61  1  0  0  0  0
 26 27  2  0  0  0  0
 26 62  1  0  0  0  0
 27 63  1  0  0  0  0
 29 34  1  0  0  0  0
M  END
> <ConfScore>
-0.376892

$$$$
4agp


 63 65  0  0  0  0  0  0  0  0999 V2000
   90.4980   98.3810  -44.6910 N   0  3  0  1  0  4  0  0  0  0  0  0
   92.0484  102.3740  -44.2389 N   0  3  0  1  0  4  0  0  0  0  0  0
   91.1683   98.0268  -48.8151 C   0  0  0  1  0  3  0  0  0  0  0  0
   92.2698   98.7332  -49.4016 C   0  0  0  1  0  2  0  0  0  0  0  0
   93.2059   99.3309  -49.8437 C   0  0  0  1  0  2  0  0  0  0  0  0
   94.3356  100.0561  -50.4589 C   0  0  0  1  0  4  0  0  0  0  0  0
   96.3484  101.2414  -49.8447 C   0  0  0  1  0  3  0  0  0  0  0  0
   90.0146   97.2191  -46.8325 C   0  0  0  1  0  3  0  0  0  0  0  0
   90.1878   97.4626  -49.6412 C   0  0  0  1  0  3  0  0  0  0  0  0
   89.9050   97.1660  -45.3350 C   0  0  0  1  0  4  0  0  0  0  0  0
   89.5430   99.5450  -44.7170 C   0  0  0  1  0  4  0  0  0  0  0  0
   91.0838   97.9078  -47.4194 C   0  0  0  1  0  3  0  0  0  0  0  0
   89.1256   96.7733  -49.0337 C   0  0  0  1  0  3  0  0  0  0  0  0
   89.0026   96.6340  -47.6384 C   0  0  0  1  0  3  0  0  0  0  0  0
   90.1750  100.7310  -44.0050 C   0  0  0  1  0  4  0  0  0  0  0  0
   91.4300  101.0810  -44.8020 C   0  0  0  1  0  4  0  0  0  0  0  0
   93.2591  102.8328  -45.0612 C   0  0  0  1  0  4  0  0  0  0  0  0
   92.7968  103.0667  -46.4869 C   0  0  0  1  0  4  0  0  0  0  0  0
   92.4430  102.3185  -42.7690 C   0  0  0  1  0  4  0  0  0  0  0  0
   91.2945  101.9427  -41.8427 C   0  0  0  1  0  4  0  0  0  0  0  0
   92.4510   99.9400  -44.6950 C   0  0  0  1  0  4  0  0  0  0  0  0
   91.8210   98.7070  -45.3220 C   0  0  0  1  0  4  0  0  0  0  0  0
   97.1455  101.6838  -48.7853 C   0  0  0  1  0  3  0  0  0  0  0  0
   98.3204  102.3978  -49.0319 C   0  0  0  1  0  3  0  0  0  0  0  0
   98.7044  102.6746  -50.3424 C   0  0  0  1  0  3  0  0  0  0  0  0
   97.9106  102.2412  -51.4061 C   0  0  0  1  0  3  0  0  0  0  0  0
   96.7361  101.5224  -51.1560 C   0  0  0  1  0  3  0  0  0  0  0  0
   95.2239  100.5549  -49.4557 O   0  0  0  1  0  2  0  0  0  0  0  0
   87.9559   95.9655  -47.0843 O   0  0  0  1  0  2  0  0  0  0  0  0
   87.6405   95.9036  -50.2738 I   0  0  0  1  0  1  0  0  0  0  0  0
   93.9455  100.8994  -51.0479 H   0  0  0  1  0  1  0  0  0  0  0  0
   94.8868   99.3716  -51.1212 H   0  0  0  1  0  1  0  0  0  0  0  0
   90.6654   98.1804  -43.7172 H   0  0  0  1  0  1  0  0  0  0  0  0
   88.2635   95.4559  -46.3443 H   0  0  0  1  0  1  0  0  0  0  0  0
   90.2471   97.5553  -50.7189 H   0  0  0  1  0  1  0  0  0  0  0  0
   88.8424   97.0989  -45.0579 H   0  0  0  1  0  1  0  0  0  0  0  0
   90.4360   96.2755  -44.9709 H   0  0  0  1  0  1  0  0  0  0  0  0
   91.3382  103.0864  -44.3227 H   0  0  0  1  0  1  0  0  0  0  0  0
   88.6101   99.2656  -44.2072 H   0  0  0  1  0  1  0  0  0  0  0  0
   89.3242   99.8170  -45.7597 H   0  0  0  1  0  1  0  0  0  0  0  0
   91.8489   98.3505  -46.7931 H   0  0  0  1  0  1  0  0  0  0  0  0
   90.4414  100.4592  -42.9725 H   0  0  0  1  0  1  0  0  0  0  0  0
   89.4798  101.5841  -43.9926 H   0  0  0  1  0  1  0  0  0  0  0  0
   91.1613  101.2320  -45.8577 H   0  0  0  1  0  1  0  0  0  0  0  0
   94.0379  102.0559  -45.0445 H   0  0  0  1  0  1  0  0  0  0  0  0
   93.6633  103.7657  -44.6425 H   0  0  0  1  0  1  0  0  0  0  0  0
   92.0030  103.8287  -46.4958 H   0  0  0  1  0  1  0  0  0  0  0  0
   92.4062  102.1263  -46.9047 H   0  0  0  1  0  1  0  0  0  0  0  0
   93.6454  103.4150  -47.0959 H   0  0  0  1  0  1  0  0  0  0  0  0
   92.8192  103.3078  -42.4722 H   0  0  0  1  0  1  0  0  0  0  0  0
   93.2417  101.5721  -42.6511 H   0  0  0  1  0  1  0  0  0  0  0  0
   91.6539  101.9215  -40.8031 H   0  0  0  1  0  1  0  0  0  0  0  0
   90.9110  100.9495  -42.1195 H   0  0  0  1  0  1  0  0  0  0  0  0
   90.4884  102.6858  -41.9386 H   0  0  0  1  0  1  0  0  0  0  0  0
   92.6881   99.7451  -43.6375 H   0  0  0  1  0  1  0  0  0  0  0  0
   93.3710  100.2073  -45.2341 H   0  0  0  1  0  1  0  0  0  0  0  0
   91.6686   98.8909  -46.3957 H   0  0  0  1  0  1  0  0  0  0  0  0
   92.5006   97.8518  -45.1886 H   0  0  0  1  0  1  0  0  0  0  0  0
   96.8502  101.4705  -47.7642 H   0  0  0  1  0  1  0  0  0  0  0  0
   98.9326  102.7381  -48.2042 H   0  0  0  1  0  1  0  0  0  0  0  0
   99.6179  103.2260  -50.5351 H   0  0  0  1  0  1  0  0  0  0  0  0
   98.2033  102.4624  -52.4268 H   0  0  0  1  0  1  0  0  0  0  0  0
   96.1246  101.1819  -51.9844 H   0  0  0  1  0  1  0  0  0  0  0  0
  1 10  1  0  0  0  0
  1 11  1  0  0  0  0
  1 22  1  0  0  0  0
  1 33  1  0  0  0  0
  2 16  1  0  0  0  0
  2 17  1  0  0  0  0
  2 19  1  0  0  0  0
  2 38  1  0  0  0  0
  3  4  1  0  0  0  0
  3  9  2  0  0  0  0
  3 12  1  0  0  0  0
  4  5  3  0  0  0  0
  5  6  1  0  0  0  0
  6 28  1  0  0  0  0
  6 31  1  0  0  0  0
  6 32  1  0  0  0  0
  7 23  2  0  0  0  0
  7 27  1  0  0  0  0
  7 28  1  0  0  0  0
  8 10  1  0  0  0  0
  8 12  2  0  0  0  0
  8 14  1  0  0  0  0
  9 13  1  0  0  0  0
  9 35  1  0  0  0  0
 10 36  1  0  0  0  0
 10 37  1  0  0  0  0
 11 15  1  0  0  0  0
 11 39  1  0  0  0  0
 11 40  1  0  0  0  0
 12 41  1  0  0  0  0
 13 14  2  0  0  0  0
 13 30  1  0  0  0  0
 14 29  1  0  0  0  0
 15 16  1  0  0  0  0
 15 42  1  0  0  0  0
 15 43  1  0  0  0  0
 16 21  1  0  0  0  0
 16 44  1  0  0  0  0
 17 18  1  0  0  0  0
 17 45  1  0  0  0  0
 17 46  1  0  0  0  0
 18 47  1  0  0  0  0
 18 48  1  0  0  0  0
 18 49  1  0  0  0  0
 19 20  1  0  0  0  0
 19 50  1  0  0  0  0
 19 51  1  0  0  0  0
 20 52  1  0  0  0  0
 20 53  1  0  0  0  0
 20 54  1  0  0  0  0
 21 22  1  0  0  0  0
 21 55  1  0  0  0  0
 21 56  1  0  0  0  0
 22 57  1  0  0  0  0
 22 58  1  0  0  0  0
 23 24  1  0  0  0  0
 23 59  1  0  0  0  0
 24 25  2  0  0  0  0
 24 60  1  0  0  0  0
 25 26  1  0  0  0  0
 25 61  1  0  0  0  0
 26 27  2  0  0  0  0
 26 62  1  0  0  0  0
 27 63  1  0  0  0  0
 29 34  1  0  0  0  0
M  END
> <ConfScore>
-0.36405

$$$$
4agp


 63 65  0  0  0  0  0  0  0  0999 V2000
    5.4320    2.2550   28.3390 N   0  3  0  1  0  4  0  0  0  0  0  0
    4.8056   -1.3098   27.7638 N   0  3  0  1  0  4  0  0  0  0  0  0
    7.7138    5.1788   26.1565 C   0  0  0  1  0  3  0  0  0  0  0  0
    7.8018    5.1100   24.7268 C   0  0  0  1  0  2  0  0  0  0  0  0
    7.9253    5.0600   23.5389 C   0  0  0  1  0  2  0  0  0  0  0  0
    8.0037    4.9873   22.0662 C   0  0  0  1  0  4  0  0  0  0  0  0
    9.6181    5.1181   20.2745 C   0  0  0  1  0  3  0  0  0  0  0  0
    7.0632    4.2086   28.2453 C   0  0  0  1  0  3  0  0  0  0  0  0
    8.1608    6.2970   26.8253 C   0  0  0  1  0  3  0  0  0  0  0  0
    6.4640    3.0610   28.9950 C   0  0  0  1  0  4  0  0  0  0  0  0
    6.0520    1.4770   27.2550 C   0  0  0  1  0  4  0  0  0  0  0  0
    7.1834    4.1306   26.8673 C   0  0  0  1  0  3  0  0  0  0  0  0
    8.0720    6.3692   28.2101 C   0  0  0  1  0  3  0  0  0  0  0  0
    7.5264    5.3233   28.9238 C   0  0  0  1  0  3  0  0  0  0  0  0
    4.9600    0.8100   26.4490 C   0  0  0  1  0  4  0  0  0  0  0  0
    4.0370   -0.0500   27.3240 C   0  0  0  1  0  4  0  0  0  0  0  0
    5.7496   -1.8149   26.6656 C   0  0  0  1  0  4  0  0  0  0  0  0
    6.7314   -0.7045   26.3433 C   0  0  0  1  0  4  0  0  0  0  0  0
    3.9373   -2.4674   28.2387 C   0  0  0  1  0  4  0  0  0  0  0  0
    3.0050   -2.1006   29.3852 C   0  0  0  1  0  4  0  0  0  0  0  0
    3.5580    0.6920   28.5700 C   0  0  0  1  0  4  0  0  0  0  0  0
    4.7240    1.3610   29.2750 C   0  0  0  1  0  4  0  0  0  0  0  0
    8.4964    4.8828   19.4747 C   0  0  0  1  0  3  0  0  0  0  0  0
    8.6179    4.8159   18.0848 C   0  0  0  1  0  3  0  0  0  0  0  0
    9.8651    4.9833   17.4864 C   0  0  0  1  0  3  0  0  0  0  0  0
   10.9915    5.2131   18.2788 C   0  0  0  1  0  3  0  0  0  0  0  0
   10.8660    5.2836   19.6708 C   0  0  0  1  0  3  0  0  0  0  0  0
    9.3520    5.1566   21.6216 O   0  0  0  1  0  2  0  0  0  0  0  0
    7.4440    5.3859   30.2798 O   0  0  0  1  0  2  0  0  0  0  0  0
    8.7771    8.0916   29.2279 I   0  0  0  1  0  1  0  0  0  0  0  0
    7.3777    5.7807   21.6316 H   0  0  0  1  0  1  0  0  0  0  0  0
    7.6340    4.0060   21.7326 H   0  0  0  1  0  1  0  0  0  0  0  0
    4.7369    2.8837   27.9672 H   0  0  0  1  0  1  0  0  0  0  0  0
    6.5357    5.3035   30.5447 H   0  0  0  1  0  1  0  0  0  0  0  0
    8.5839    7.1245   26.2687 H   0  0  0  1  0  1  0  0  0  0  0  0
    7.2876    2.3807   29.2581 H   0  0  0  1  0  1  0  0  0  0  0  0
    6.0195    3.4709   29.9126 H   0  0  0  1  0  1  0  0  0  0  0  0
    5.3759   -1.0328   28.5492 H   0  0  0  1  0  1  0  0  0  0  0  0
    6.7157    0.7119   27.6822 H   0  0  0  1  0  1  0  0  0  0  0  0
    6.6341    2.1467   26.6056 H   0  0  0  1  0  1  0  0  0  0  0  0
    6.8572    3.2377   26.3478 H   0  0  0  1  0  1  0  0  0  0  0  0
    5.4248    0.1675   25.6861 H   0  0  0  1  0  1  0  0  0  0  0  0
    4.3575    1.5882   25.9564 H   0  0  0  1  0  1  0  0  0  0  0  0
    3.1599   -0.3440   26.7292 H   0  0  0  1  0  1  0  0  0  0  0  0
    5.1714   -2.0741   25.7662 H   0  0  0  1  0  1  0  0  0  0  0  0
    6.2937   -2.7025   27.0196 H   0  0  0  1  0  1  0  0  0  0  0  0
    7.2919   -0.4341   27.2508 H   0  0  0  1  0  1  0  0  0  0  0  0
    6.1818    0.1759   25.9766 H   0  0  0  1  0  1  0  0  0  0  0  0
    7.4337   -1.0484   25.5681 H   0  0  0  1  0  1  0  0  0  0  0  0
    4.5957   -3.2817   28.5733 H   0  0  0  1  0  1  0  0  0  0  0  0
    3.3266   -2.8141   27.3927 H   0  0  0  1  0  1  0  0  0  0  0  0
    2.4118   -2.9818   29.6716 H   0  0  0  1  0  1  0  0  0  0  0  0
    2.3312   -1.2922   29.0647 H   0  0  0  1  0  1  0  0  0  0  0  0
    3.5997   -1.7611   30.2467 H   0  0  0  1  0  1  0  0  0  0  0  0
    3.0827   -0.0249   29.2576 H   0  0  0  1  0  1  0  0  0  0  0  0
    2.8266    1.4580   28.2753 H   0  0  0  1  0  1  0  0  0  0  0  0
    4.3473    1.9483   30.1253 H   0  0  0  1  0  1  0  0  0  0  0  0
    5.4199    0.5906   29.6402 H   0  0  0  1  0  1  0  0  0  0  0  0
    7.5243    4.7520   19.9364 H   0  0  0  1  0  1  0  0  0  0  0  0
    7.7427    4.6321   17.4717 H   0  0  0  1  0  1  0  0  0  0  0  0
    9.9600    4.9349   16.4074 H   0  0  0  1  0  1  0  0  0  0  0  0
   11.9646    5.3357   17.8158 H   0  0  0  1  0  1  0  0  0  0  0  0
   11.7417    5.4680   20.2833 H   0  0  0  1  0  1  0  0  0  0  0  0
  1 10  1  0  0  0  0
  1 11  1  0  0  0  0
  1 22  1  0  0  0  0
  1 33  1  0  0  0  0
  2 16  1  0  0  0  0
  2 17  1  0  0  0  0
  2 19  1  0  0  0  0
  2 38  1  0  0  0  0
  3  4  1  0  0  0  0
  3  9  2  0  0  0  0
  3 12  1  0  0  0  0
  4  5  3  0  0  0  0
  5  6  1  0  0  0  0
  6 28  1  0  0  0  0
  6 31  1  0  0  0  0
  6 32  1  0  0  0  0
  7 23  2  0  0  0  0
  7 27  1  0  0  0  0
  7 28  1  0  0  0  0
  8 10  1  0  0  0  0
  8 12  2  0  0  0  0
  8 14  1  0  0  0  0
  9 13  1  0  0  0  0
  9 35  1  0  0  0  0
 10 36  1  0  0  0  0
 10 37  1  0  0  0  0
 11 15  1  0  0  0  0
 11 39  1  0  0  0  0
 11 40  1  0  0  0  0
 12 41  1  0  0  0  0
 13 14  2  0  0  0  0
 13 30  1  0  0  0  0
 14 29  1  0  0  0  0
 15 16  1  0  0  0  0
 15 42  1  0  0  0  0
 15 43  1  0  0  0  0
 16 21  1  0  0  0  0
 16 44  1  0  0  0  0
 17 18  1  0  0  0  0
 17 45  1  0  0  0  0
 17 46  1  0  0  0  0
 18 47  1  0  0  0  0
 18 48  1  0  0  0  0
 18 49  1  0  0  0  0
 19 20  1  0  0  0  0
 19 50  1  0  0  0  0
 19 51  1  0  0  0  0
 20 52  1  0  0  0  0
 20 53  1  0  0  0  0
 20 54  1  0  0  0  0
 21 22  1  0  0  0  0
 21 55  1  0  0  0  0
 21 56  1  0  0  0  0
 22 57  1  0  0  0  0
 22 58  1  0  0  0  0
 23 24  1  0  0  0  0
 23 59  1  0  0  0  0
 24 25  2  0  0  0  0
 24 60  1  0  0  0  0
 25 26  1  0  0  0  0
 25 61  1  0  0  0  0
 26 27  2  0  0  0  0
 26 62  1  0  0  0  0
 27 63  1  0  0  0  0
 29 34  1  0  0  0  0
M  END
> <ConfScore>
-0.354587

$$$$
4agp


 63 65  0  0  0  0  0  0  0  0999 V2000
    5.4320    2.2550   28.3390 N   0  3  0  1  0  4  0  0  0  0  0  0
    4.8056   -1.3098   27.7638 N   0  3  0  1  0  4  0  0  0  0  0  0
    8.5102    4.1944   26.0568 C   0  0  0  1  0  3  0  0  0  0  0  0
    8.7852    3.7689   24.7153 C   0  0  0  1  0  2  0  0  0  0  0  0
    9.0604    3.3985   23.6126 C   0  0  0  1  0  2  0  0  0  0  0  0
    9.3325    2.9642   22.2277 C   0  0  0  1  0  4  0  0  0  0  0  0
   11.0673    1.9304   20.9029 C   0  0  0  1  0  3  0  0  0  0  0  0
    7.3848    3.8784   28.1452 C   0  0  0  1  0  3  0  0  0  0  0  0
    9.0752    5.3513   26.5466 C   0  0  0  1  0  3  0  0  0  0  0  0
    6.4640    3.0610   28.9950 C   0  0  0  1  0  4  0  0  0  0  0  0
    6.0520    1.4770   27.2550 C   0  0  0  1  0  4  0  0  0  0  0  0
    7.6819    3.4513   26.8612 C   0  0  0  1  0  3  0  0  0  0  0  0
    8.8063    5.7693   27.8442 C   0  0  0  1  0  3  0  0  0  0  0  0
    7.9634    5.0316   28.6480 C   0  0  0  1  0  3  0  0  0  0  0  0
    4.9600    0.8100   26.4490 C   0  0  0  1  0  4  0  0  0  0  0  0
    4.0370   -0.0500   27.3240 C   0  0  0  1  0  4  0  0  0  0  0  0
    3.8589   -2.4735   28.0834 C   0  0  0  1  0  4  0  0  0  0  0  0
    3.0513   -2.7777   26.8358 C   0  0  0  1  0  4  0  0  0  0  0  0
    5.7583   -1.1132   28.9356 C   0  0  0  1  0  4  0  0  0  0  0  0
    6.6310   -2.3272   29.2229 C   0  0  0  1  0  4  0  0  0  0  0  0
    3.5580    0.6920   28.5700 C   0  0  0  1  0  4  0  0  0  0  0  0
    4.7240    1.3610   29.2750 C   0  0  0  1  0  4  0  0  0  0  0  0
   10.1254    2.0580   19.8783 C   0  0  0  1  0  3  0  0  0  0  0  0
   10.4235    1.6280   18.5832 C   0  0  0  1  0  3  0  0  0  0  0  0
   11.6679    1.0656   18.3059 C   0  0  0  1  0  3  0  0  0  0  0  0
   12.6123    0.9293   19.3252 C   0  0  0  1  0  3  0  0  0  0  0  0
   12.3122    1.3649   20.6208 C   0  0  0  1  0  3  0  0  0  0  0  0
   10.6388    2.3923   22.1235 O   0  0  0  1  0  2  0  0  0  0  0  0
    7.7029    5.4324   29.9211 O   0  0  0  1  0  2  0  0  0  0  0  0
    9.6945    7.5455   28.5897 I   0  0  0  1  0  1  0  0  0  0  0  0
    9.2640    3.8332   21.5567 H   0  0  0  1  0  1  0  0  0  0  0  0
    8.5849    2.2133   21.9310 H   0  0  0  1  0  1  0  0  0  0  0  0
    4.7369    2.8837   27.9672 H   0  0  0  1  0  1  0  0  0  0  0  0
    6.8506    5.8502   29.9521 H   0  0  0  1  0  1  0  0  0  0  0  0
    9.7327    5.9383   25.9168 H   0  0  0  1  0  1  0  0  0  0  0  0
    7.0903    2.3712   29.5801 H   0  0  0  1  0  1  0  0  0  0  0  0
    5.9493    3.7549   29.6741 H   0  0  0  1  0  1  0  0  0  0  0  0
    5.3695   -1.5867   26.9738 H   0  0  0  1  0  1  0  0  0  0  0  0
    6.7157    0.7119   27.6822 H   0  0  0  1  0  1  0  0  0  0  0  0
    6.6341    2.1467   26.6056 H   0  0  0  1  0  1  0  0  0  0  0  0
    7.2583    2.5259   26.4897 H   0  0  0  1  0  1  0  0  0  0  0  0
    5.4248    0.1675   25.6861 H   0  0  0  1  0  1  0  0  0  0  0  0
    4.3575    1.5882   25.9564 H   0  0  0  1  0  1  0  0  0  0  0  0
    3.1599   -0.3440   26.7292 H   0  0  0  1  0  1  0  0  0  0  0  0
    3.1838   -2.1909   28.9048 H   0  0  0  1  0  1  0  0  0  0  0  0
    4.4410   -3.3593   28.3759 H   0  0  0  1  0  1  0  0  0  0  0  0
    2.3618   -3.6110   27.0380 H   0  0  0  1  0  1  0  0  0  0  0  0
    3.7323   -3.0563   26.0172 H   0  0  0  1  0  1  0  0  0  0  0  0
    2.4734   -1.8864   26.5458 H   0  0  0  1  0  1  0  0  0  0  0  0
    5.1641   -0.8921   29.8337 H   0  0  0  1  0  1  0  0  0  0  0  0
    6.4145   -0.2600   28.7111 H   0  0  0  1  0  1  0  0  0  0  0  0
    7.2904   -2.1111   30.0766 H   0  0  0  1  0  1  0  0  0  0  0  0
    7.2407   -2.5577   28.3367 H   0  0  0  1  0  1  0  0  0  0  0  0
    5.9911   -3.1903   29.4611 H   0  0  0  1  0  1  0  0  0  0  0  0
    3.0827   -0.0249   29.2576 H   0  0  0  1  0  1  0  0  0  0  0  0
    2.8266    1.4580   28.2753 H   0  0  0  1  0  1  0  0  0  0  0  0
    4.3473    1.9483   30.1253 H   0  0  0  1  0  1  0  0  0  0  0  0
    5.4199    0.5906   29.6402 H   0  0  0  1  0  1  0  0  0  0  0  0
    9.1560    2.4950   20.0900 H   0  0  0  1  0  1  0  0  0  0  0  0
    9.6867    1.7299   17.7944 H   0  0  0  1  0  1  0  0  0  0  0  0
   11.9015    0.7344   17.3003 H   0  0  0  1  0  1  0  0  0  0  0  0
   13.5786    0.4845   19.1135 H   0  0  0  1  0  1  0  0  0  0  0  0
   13.0498    1.2631   21.4092 H   0  0  0  1  0  1  0  0  0  0  0  0
  1 10  1  0  0  0  0
  1 11  1  0  0  0  0
  1 22  1  0  0  0  0
  1 33  1  0  0  0  0
  2 16  1  0  0  0  0
  2 17  1  0  0  0  0
  2 19  1  0  0  0  0
  2 38  1  0  0  0  0
  3  4  1  0  0  0  0
  3  9  2  0  0  0  0
  3 12  1  0  0  0  0
  4  5  3  0  0  0  0
  5  6  1  0  0  0  0
  6 28  1  0  0  0  0
  6 31  1  0  0  0  0
  6 32  1  0  0  0  0
  7 23  2  0  0  0  0
  7 27  1  0  0  0  0
  7 28  1  0  0  0  0
  8 10  1  0  0  0  0
  8 12  2  0  0  0  0
  8 14  1  0  0  0  0
  9 13  1  0  0  0  0
  9 35  1  0  0  0  0
 10 36  1  0  0  0  0
 10 37  1  0  0  0  0
 11 15  1  0  0  0  0
 11 39  1  0  0  0  0
 11 40  1  0  0  0  0
 12 41  1  0  0  0  0
 13 14  2  0  0  0  0
 13 30  1  0  0  0  0
 14 29  1  0  0  0  0
 15 16  1  0  0  0  0
 15 42  1  0  0  0  0
 15 43  1  0  0  0  0
 16 21  1  0  0  0  0
 16 44  1  0  0  0  0
 17 18  1  0  0  0  0
 17 45  1  0  0  0  0
 17 46  1  0  0  0  0
 18 47  1  0  0  0  0
 18 48  1  0  0  0  0
 18 49  1  0  0  0  0
 19 20  1  0  0  0  0
 19 50  1  0  0  0  0
 19 51  1  0  0  0  0
 20 52  1  0  0  0  0
 20 53  1  0  0  0  0
 20 54  1  0  0  0  0
 21 22  1  0  0  0  0
 21 55  1  0  0  0  0
 21 56  1  0  0  0  0
 22 57  1  0  0  0  0
 22 58  1  0  0  0  0
 23 24  1  0  0  0  0
 23 59  1  0  0  0  0
 24 25  2  0  0  0  0
 24 60  1  0  0  0  0
 25 26  1  0  0  0  0
 25 61  1  0  0  0  0
 26 27  2  0  0  0  0
 26 62  1  0  0  0  0
 27 63  1  0  0  0  0
 29 34  1  0  0  0  0
M  END
> <ConfScore>
-0.346166

$$$$
4agp


 63 65  0  0  0  0  0  0  0  0999 V2000
   90.4980   98.3810  -44.6910 N   0  3  0  1  0  4  0  0  0  0  0  0
   92.0484  102.3740  -44.2389 N   0  3  0  1  0  4  0  0  0  0  0  0
   90.6013   98.4579  -48.8413 C   0  0  0  1  0  3  0  0  0  0  0  0
   91.1559   99.6312  -49.4513 C   0  0  0  1  0  2  0  0  0  0  0  0
   91.6087  100.5887  -50.0054 C   0  0  0  1  0  2  0  0  0  0  0  0
   92.1820  101.8017  -50.6223 C   0  0  0  1  0  4  0  0  0  0  0  0
   92.6169  102.7627  -52.7951 C   0  0  0  1  0  3  0  0  0  0  0  0
   90.0146   97.2191  -46.8325 C   0  0  0  1  0  3  0  0  0  0  0  0
   90.1144   97.4213  -49.6481 C   0  0  0  1  0  3  0  0  0  0  0  0
   89.9050   97.1660  -45.3350 C   0  0  0  1  0  4  0  0  0  0  0  0
   89.5430   99.5450  -44.7170 C   0  0  0  1  0  4  0  0  0  0  0  0
   90.5519   98.3598  -47.4423 C   0  0  0  1  0  3  0  0  0  0  0  0
   89.5827   96.2846  -49.0175 C   0  0  0  1  0  3  0  0  0  0  0  0
   89.5122   96.1485  -47.6184 C   0  0  0  1  0  3  0  0  0  0  0  0
   90.1750  100.7310  -44.0050 C   0  0  0  1  0  4  0  0  0  0  0  0
   91.4300  101.0810  -44.8020 C   0  0  0  1  0  4  0  0  0  0  0  0
   93.2591  102.8328  -45.0612 C   0  0  0  1  0  4  0  0  0  0  0  0
   94.3689  101.8166  -44.8695 C   0  0  0  1  0  4  0  0  0  0  0  0
   92.4430  102.3185  -42.7690 C   0  0  0  1  0  4  0  0  0  0  0  0
   93.0721  103.6070  -42.2570 C   0  0  0  1  0  4  0  0  0  0  0  0
   92.4510   99.9400  -44.6950 C   0  0  0  1  0  4  0  0  0  0  0  0
   91.8210   98.7070  -45.3220 C   0  0  0  1  0  4  0  0  0  0  0  0
   92.5314  102.5699  -54.1767 C   0  0  0  1  0  3  0  0  0  0  0  0
   92.9783  103.5560  -55.0594 C   0  0  0  1  0  3  0  0  0  0  0  0
   93.5153  104.7422  -54.5634 C   0  0  0  1  0  3  0  0  0  0  0  0
   93.6095  104.9402  -53.1845 C   0  0  0  1  0  3  0  0  0  0  0  0
   93.1571  103.9521  -52.3027 C   0  0  0  1  0  3  0  0  0  0  0  0
   92.1427  101.7115  -52.0488 O   0  0  0  1  0  2  0  0  0  0  0  0
   88.9838   95.0359  -47.0420 O   0  0  0  1  0  2  0  0  0  0  0  0
   88.8533   94.7024  -50.2277 I   0  0  0  1  0  1  0  0  0  0  0  0
   93.2267  101.9135  -50.2960 H   0  0  0  1  0  1  0  0  0  0  0  0
   91.6023  102.6797  -50.3000 H   0  0  0  1  0  1  0  0  0  0  0  0
   90.6654   98.1804  -43.7172 H   0  0  0  1  0  1  0  0  0  0  0  0
   89.4964   94.8032  -46.2772 H   0  0  0  1  0  1  0  0  0  0  0  0
   90.1472   97.4945  -50.7284 H   0  0  0  1  0  1  0  0  0  0  0  0
   88.8424   97.0989  -45.0579 H   0  0  0  1  0  1  0  0  0  0  0  0
   90.4360   96.2755  -44.9709 H   0  0  0  1  0  1  0  0  0  0  0  0
   91.3382  103.0864  -44.3227 H   0  0  0  1  0  1  0  0  0  0  0  0
   88.6101   99.2656  -44.2072 H   0  0  0  1  0  1  0  0  0  0  0  0
   89.3242   99.8170  -45.7597 H   0  0  0  1  0  1  0  0  0  0  0  0
   90.9310   99.1701  -46.8312 H   0  0  0  1  0  1  0  0  0  0  0  0
   90.4414  100.4592  -42.9725 H   0  0  0  1  0  1  0  0  0  0  0  0
   89.4798  101.5841  -43.9926 H   0  0  0  1  0  1  0  0  0  0  0  0
   91.1613  101.2320  -45.8577 H   0  0  0  1  0  1  0  0  0  0  0  0
   93.5942  103.8211  -44.7130 H   0  0  0  1  0  1  0  0  0  0  0  0
   92.9875  102.8919  -46.1251 H   0  0  0  1  0  1  0  0  0  0  0  0
   94.0215  100.8259  -45.1990 H   0  0  0  1  0  1  0  0  0  0  0  0
   94.6456  101.7722  -43.8051 H   0  0  0  1  0  1  0  0  0  0  0  0
   95.2461  102.1137  -45.4651 H   0  0  0  1  0  1  0  0  0  0  0  0
   93.1657  101.5013  -42.6335 H   0  0  0  1  0  1  0  0  0  0  0  0
   91.5414  102.1128  -42.1742 H   0  0  0  1  0  1  0  0  0  0  0  0
   93.3281  103.4925  -41.1932 H   0  0  0  1  0  1  0  0  0  0  0  0
   92.3582  104.4354  -42.3762 H   0  0  0  1  0  1  0  0  0  0  0  0
   93.9838  103.8240  -42.8339 H   0  0  0  1  0  1  0  0  0  0  0  0
   92.6881   99.7451  -43.6375 H   0  0  0  1  0  1  0  0  0  0  0  0
   93.3710  100.2073  -45.2341 H   0  0  0  1  0  1  0  0  0  0  0  0
   91.6686   98.8909  -46.3957 H   0  0  0  1  0  1  0  0  0  0  0  0
   92.5006   97.8518  -45.1886 H   0  0  0  1  0  1  0  0  0  0  0  0
   92.1143  101.6483  -54.5666 H   0  0  0  1  0  1  0  0  0  0  0  0
   92.9091  103.3980  -56.1298 H   0  0  0  1  0  1  0  0  0  0  0  0
   93.8595  105.5097  -55.2476 H   0  0  0  1  0  1  0  0  0  0  0  0
   94.0345  105.8593  -52.7962 H   0  0  0  1  0  1  0  0  0  0  0  0
   93.2262  104.1110  -51.2322 H   0  0  0  1  0  1  0  0  0  0  0  0
  1 10  1  0  0  0  0
  1 11  1  0  0  0  0
  1 22  1  0  0  0  0
  1 33  1  0  0  0  0
  2 16  1  0  0  0  0
  2 17  1  0  0  0  0
  2 19  1  0  0  0  0
  2 38  1  0  0  0  0
  3  4  1  0  0  0  0
  3  9  2  0  0  0  0
  3 12  1  0  0  0  0
  4  5  3  0  0  0  0
  5  6  1  0  0  0  0
  6 28  1  0  0  0  0
  6 31  1  0  0  0  0
  6 32  1  0  0  0  0
  7 23  2  0  0  0  0
  7 27  1  0  0  0  0
  7 28  1  0  0  0  0
  8 10  1  0  0  0  0
  8 12  2  0  0  0  0
  8 14  1  0  0  0  0
  9 13  1  0  0  0  0
  9 35  1  0  0  0  0
 10 36  1  0  0  0  0
 10 37  1  0  0  0  0
 11 15  1  0  0  0  0
 11 39  1  0  0  0  0
 11 40  1  0  0  0  0
 12 41  1  0  0  0  0
 13 14  2  0  0  0  0
 13 30  1  0  0  0  0
 14 29  1  0  0  0  0
 15 16  1  0  0  0  0
 15 42  1  0  0  0  0
 15 43  1  0  0  0  0
 16 21  1  0  0  0  0
 16 44  1  0  0  0  0
 17 18  1  0  0  0  0
 17 45  1  0  0  0  0
 17 46  1  0  0  0  0
 18 47  1  0  0  0  0
 18 48  1  0  0  0  0
 18 49  1  0  0  0  0
 19 20  1  0  0  0  0
 19 50  1  0  0  0  0
 19 51  1  0  0  0  0
 20 52  1  0  0  0  0
 20 53  1  0  0  0  0
 20 54  1  0  0  0  0
 21 22  1  0  0  0  0
 21 55  1  0  0  0  0
 21 56  1  0  0  0  0
 22 57  1  0  0  0  0
 22 58  1  0  0  0  0
 23 24  1  0  0  0  0
 23 59  1  0  0  0  0
 24 25  2  0  0  0  0
 24 60  1  0  0  0  0
 25 26  1  0  0  0  0
 25 61  1  0  0  0  0
 26 27  2  0  0  0  0
 26 62  1  0  0  0  0
 27 63  1  0  0  0  0
 29 34  1  0  0  0  0
M  END
> <ConfScore>
-0.342203

$$$$
4agp


 63 65  0  0  0  0  0  0  0  0999 V2000
    5.4320    2.2550   28.3390 N   0  3  0  1  0  4  0  0  0  0  0  0
    4.8056   -1.3098   27.7638 N   0  3  0  1  0  4  0  0  0  0  0  0
    7.9479    0.5755   31.3877 C   0  0  0  1  0  3  0  0  0  0  0  0
    7.5597   -0.6341   32.0529 C   0  0  0  1  0  2  0  0  0  0  0  0
    7.2518   -1.6685   32.5667 C   0  0  0  1  0  2  0  0  0  0  0  0
    6.8483   -2.9075   33.2615 C   0  0  0  1  0  4  0  0  0  0  0  0
    6.8165   -5.3011   32.9405 C   0  0  0  1  0  3  0  0  0  0  0  0
    7.4435    2.3781   29.8962 C   0  0  0  1  0  3  0  0  0  0  0  0
    9.2137    1.0889   31.5657 C   0  0  0  1  0  3  0  0  0  0  0  0
    6.4640    3.0610   28.9950 C   0  0  0  1  0  4  0  0  0  0  0  0
    6.0520    1.4770   27.2550 C   0  0  0  1  0  4  0  0  0  0  0  0
    7.0602    1.2293   30.5692 C   0  0  0  1  0  3  0  0  0  0  0  0
    9.5948    2.2578   30.9182 C   0  0  0  1  0  3  0  0  0  0  0  0
    8.7091    2.9073   30.0848 C   0  0  0  1  0  3  0  0  0  0  0  0
    4.9600    0.8100   26.4490 C   0  0  0  1  0  4  0  0  0  0  0  0
    4.0370   -0.0500   27.3240 C   0  0  0  1  0  4  0  0  0  0  0  0
    5.7496   -1.8149   26.6656 C   0  0  0  1  0  4  0  0  0  0  0  0
    6.6833   -0.6798   26.2906 C   0  0  0  1  0  4  0  0  0  0  0  0
    3.9373   -2.4674   28.2387 C   0  0  0  1  0  4  0  0  0  0  0  0
    2.9771   -2.9855   27.1768 C   0  0  0  1  0  4  0  0  0  0  0  0
    3.5580    0.6920   28.5700 C   0  0  0  1  0  4  0  0  0  0  0  0
    4.7240    1.3610   29.2750 C   0  0  0  1  0  4  0  0  0  0  0  0
    7.1113   -6.3486   32.0635 C   0  0  0  1  0  3  0  0  0  0  0  0
    6.8631   -7.6730   32.4317 C   0  0  0  1  0  3  0  0  0  0  0  0
    6.3164   -7.9569   33.6815 C   0  0  0  1  0  3  0  0  0  0  0  0
    6.0137   -6.9158   34.5612 C   0  0  0  1  0  3  0  0  0  0  0  0
    6.2674   -5.5902   34.1911 C   0  0  0  1  0  3  0  0  0  0  0  0
    7.1100   -4.0532   32.4471 O   0  0  0  1  0  2  0  0  0  0  0  0
    9.0746    4.0557   29.4547 O   0  0  0  1  0  2  0  0  0  0  0  0
   11.5427    3.0443   31.2126 I   0  0  0  1  0  1  0  0  0  0  0  0
    5.7722   -2.8617   33.4857 H   0  0  0  1  0  1  0  0  0  0  0  0
    7.4141   -2.9956   34.2011 H   0  0  0  1  0  1  0  0  0  0  0  0
    4.7369    2.8837   27.9672 H   0  0  0  1  0  1  0  0  0  0  0  0
    8.8776    4.7982   30.0130 H   0  0  0  1  0  1  0  0  0  0  0  0
    9.9158    0.5786   32.2139 H   0  0  0  1  0  1  0  0  0  0  0  0
    5.9461    3.8223   29.5972 H   0  0  0  1  0  1  0  0  0  0  0  0
    7.0434    3.5529   28.2013 H   0  0  0  1  0  1  0  0  0  0  0  0
    5.3759   -1.0328   28.5492 H   0  0  0  1  0  1  0  0  0  0  0  0
    6.7157    0.7119   27.6822 H   0  0  0  1  0  1  0  0  0  0  0  0
    6.6341    2.1467   26.6056 H   0  0  0  1  0  1  0  0  0  0  0  0
    6.0545    0.8447   30.4491 H   0  0  0  1  0  1  0  0  0  0  0  0
    5.4248    0.1675   25.6861 H   0  0  0  1  0  1  0  0  0  0  0  0
    4.3575    1.5882   25.9564 H   0  0  0  1  0  1  0  0  0  0  0  0
    3.1599   -0.3440   26.7292 H   0  0  0  1  0  1  0  0  0  0  0  0
    5.1667   -2.1245   25.7854 H   0  0  0  1  0  1  0  0  0  0  0  0
    6.3326   -2.6696   27.0380 H   0  0  0  1  0  1  0  0  0  0  0  0
    7.2482   -0.3594   27.1789 H   0  0  0  1  0  1  0  0  0  0  0  0
    6.0949    0.1671   25.9058 H   0  0  0  1  0  1  0  0  0  0  0  0
    7.3851   -1.0224   25.5144 H   0  0  0  1  0  1  0  0  0  0  0  0
    3.3491   -2.1291   29.1035 H   0  0  0  1  0  1  0  0  0  0  0  0
    4.5954   -3.2938   28.5436 H   0  0  0  1  0  1  0  0  0  0  0  0
    2.3876   -3.8174   27.5900 H   0  0  0  1  0  1  0  0  0  0  0  0
    3.5497   -3.3377   26.3060 H   0  0  0  1  0  1  0  0  0  0  0  0
    2.3017   -2.1740   26.8663 H   0  0  0  1  0  1  0  0  0  0  0  0
    3.0827   -0.0249   29.2576 H   0  0  0  1  0  1  0  0  0  0  0  0
    2.8266    1.4580   28.2753 H   0  0  0  1  0  1  0  0  0  0  0  0
    4.3473    1.9483   30.1253 H   0  0  0  1  0  1  0  0  0  0  0  0
    5.4199    0.5906   29.6402 H   0  0  0  1  0  1  0  0  0  0  0  0
    7.5367   -6.1318   31.0902 H   0  0  0  1  0  1  0  0  0  0  0  0
    7.0940   -8.4796   31.7449 H   0  0  0  1  0  1  0  0  0  0  0  0
    6.1263   -8.9848   33.9696 H   0  0  0  1  0  1  0  0  0  0  0  0
    5.5807   -7.1339   35.5314 H   0  0  0  1  0  1  0  0  0  0  0  0
    6.0367   -4.7840   34.8787 H   0  0  0  1  0  1  0  0  0  0  0  0
  1 10  1  0  0  0  0
  1 11  1  0  0  0  0
  1 22  1  0  0  0  0
  1 33  1  0  0  0  0
  2 16  1  0  0  0  0
  2 17  1  0  0  0  0
  2 19  1  0  0  0  0
  2 38  1  0  0  0  0
  3  4  1  0  0  0  0
  3  9  2  0  0  0  0
  3 12  1  0  0  0  0
  4  5  3  0  0  0  0
  5  6  1  0  0  0  0
  6 28  1  0  0  0  0
  6 31  1  0  0  0  0
  6 32  1  0  0  0  0
  7 23  2  0  0  0  0
  7 27  1  0  0  0  0
  7 28  1  0  0  0  0
  8 10  1  0  0  0  0
  8 12  2  0  0  0  0
  8 14  1  0  0  0  0
  9 13  1  0  0  0  0
  9 35  1  0  0  0  0
 10 36  1  0  0  0  0
 10 37  1  0  0  0  0
 11 15  1  0  0  0  0
 11 39  1  0  0  0  0
 11 40  1  0  0  0  0
 12 41  1  0  0  0  0
 13 14  2  0  0  0  0
 13 30  1  0  0  0  0
 14 29  1  0  0  0  0
 15 16  1  0  0  0  0
 15 42  1  0  0  0  0
 15 43  1  0  0  0  0
 16 21  1  0  0  0  0
 16 44  1  0  0  0  0
 17 18  1  0  0  0  0
 17 45  1  0  0  0  0
 17 46  1  0  0  0  0
 18 47  1  0  0  0  0
 18 48  1  0  0  0  0
 18 49  1  0  0  0  0
 19 20  1  0  0  0  0
 19 50  1  0  0  0  0
 19 51  1  0  0  0  0
 20 52  1  0  0  0  0
 20 53  1  0  0  0  0
 20 54  1  0  0  0  0
 21 22  1  0  0  0  0
 21 55  1  0  0  0  0
 21 56  1  0  0  0  0
 22 57  1  0  0  0  0
 22 58  1  0  0  0  0
 23 24  1  0  0  0  0
 23 59  1  0  0  0  0
 24 25  2  0  0  0  0
 24 60  1  0  0  0  0
 25 26  1  0  0  0  0
 25 61  1  0  0  0  0
 26 27  2  0  0  0  0
 26 62  1  0  0  0  0
 27 63  1  0  0  0  0
 29 34  1  0  0  0  0
M  END
> <ConfScore>
-0.325295

$$$$
