2QEH_SRO_A_145
 OpenBabel06201615513D
Coordinates from PDB:2QEH:A:145 Model:1 without hydrogens
 25 26  0  0  0  0  0  0  0  0999 V2000
   16.5170  -13.4770   -4.0240 O   0  0  0  0  0  0  0  0  0  0  0  0
   17.3840  -12.4770   -4.3380 C   0  0  0  0  0  0  0  0  0  0  0  0
   16.9740  -11.1720   -4.0640 C   0  0  0  0  0  0  0  0  0  0  0  0
   17.8170  -10.1210   -4.3620 C   0  0  0  0  0  0  0  0  0  0  0  0
   19.0430  -10.4360   -4.9170 C   0  0  0  0  0  0  0  0  0  0  0  0
   20.0770   -9.6880   -5.3470 N   0  0  0  0  0  0  0  0  0  0  0  0
   21.0370  -10.5080   -5.8360 C   0  0  0  0  0  0  0  0  0  0  0  0
   20.6210  -11.8280   -5.7250 C   0  0  0  0  0  0  0  0  0  0  0  0
   19.3500  -11.7660   -5.1560 C   0  0  0  0  0  0  0  0  0  0  0  0
   18.5470  -12.7390   -4.8650 C   0  0  0  0  0  0  0  0  0  0  0  0
   21.4420  -13.0290   -6.1670 C   0  0  0  0  0  0  0  0  0  0  0  0
   22.9370  -12.6660   -6.1150 C   0  0  0  0  0  0  0  0  0  0  0  0
   23.7690  -13.8280   -6.4090 N   0  0  0  0  0  0  0  0  0  0  0  0
   16.7505  -14.3690   -4.1906 H   0  0  0  0  0  0  0  0  0  0  0  0
   16.0489  -10.9943   -3.6424 H   0  0  0  0  0  0  0  0  0  0  0  0
   17.5441   -9.1428   -4.1785 H   0  0  0  0  0  0  0  0  0  0  0  0
   20.1267   -8.7054   -5.3116 H   0  0  0  0  0  0  0  0  0  0  0  0
   21.9393  -10.1993   -6.2306 H   0  0  0  0  0  0  0  0  0  0  0  0
   18.8259  -13.7154   -5.0491 H   0  0  0  0  0  0  0  0  0  0  0  0
   21.1734  -13.2977   -7.1673 H   0  0  0  0  0  0  0  0  0  0  0  0
   21.2496  -13.8557   -5.5155 H   0  0  0  0  0  0  0  0  0  0  0  0
   23.1751  -12.3040   -5.1367 H   0  0  0  0  0  0  0  0  0  0  0  0
   23.1304  -11.9139   -6.8511 H   0  0  0  0  0  0  0  0  0  0  0  0
   23.5955  -14.5548   -5.7147 H   0  0  0  0  0  0  0  0  0  0  0  0
   24.7522  -13.5582   -6.3803 H   0  0  0  0  0  0  0  0  0  0  0  0
  1  2  1  0  0  0  0
  1 14  1  0  0  0  0
  2 10  2  0  0  0  0
  2  3  1  0  0  0  0
  3  4  2  0  0  0  0
  3 15  1  0  0  0  0
  4  5  1  0  0  0  0
  4 16  1  0  0  0  0
  5  6  1  0  0  0  0
  5  9  2  0  0  0  0
  6  7  1  0  0  0  0
  6 17  1  0  0  0  0
  7  8  2  0  0  0  0
  7 18  1  0  0  0  0
  8 11  1  0  0  0  0
  8  9  1  0  0  0  0
  9 10  1  0  0  0  0
 10 19  1  0  0  0  0
 11 12  1  0  0  0  0
 11 20  1  0  0  0  0
 11 21  1  0  0  0  0
 12 13  1  0  0  0  0
 12 22  1  0  0  0  0
 12 23  1  0  0  0  0
 13 24  1  0  0  0  0
 13 25  1  0  0  0  0
M  END
>  <InstanceId>
2QEH_SRO_A_145

>  <ChemCompId>
SRO

>  <PdbId>
2QEH

>  <ChainId>
A

>  <ResidueNumber>
145

>  <InsertionCode>


>  <Model>
1

>  <AltIds>


>  <MissingHeavyAtoms>
0

>  <ObservedFormula>
C10 N2 O

>  <Name>
SEROTONIN

>  <SystematicName>
3-(2-aminoethyl)-1H-indol-5-ol

>  <Synonyms>
3-(2-AMINOETHYL)-1H-INDOL-5-OL

>  <Type>
NON-POLYMER

>  <Formula>
C10 H12 N2 O

>  <MolecularWeight>
176.215

>  <ModifiedDate>
2011-06-04

>  <Parent>


>  <OneLetterCode>


>  <SubcomponentList>


>  <AmbiguousFlag>


>  <InChI>
InChI=1S/C10H12N2O/c11-4-3-7-6-12-10-2-1-8(13)5-9(7)10/h1-2,5-6,12-13H,3-4,11H2

>  <InChIKey>
QZAYGJVTTNCVMB-UHFFFAOYSA-N

>  <SMILES>
c1cc2c(cc1O)c(c[nH]2)CCN

$$$$
2YMD_SRO_A_1213
 OpenBabel06201615513D
Coordinates from PDB:2YMD:A:1213 Model:1 without hydrogens
 25 26  0  0  0  0  0  0  0  0999 V2000
   13.3780   10.1350   11.2250 O   0  0  0  0  0  0  0  0  0  0  0  0
   13.4310    9.8820    9.8610 C   0  0  0  0  0  0  0  0  0  0  0  0
   14.4460   10.4260    9.0570 C   0  0  0  0  0  0  0  0  0  0  0  0
   14.4950   10.1570    7.6890 C   0  0  0  0  0  0  0  0  0  0  0  0
   13.5050    9.3390    7.0960 C   0  0  0  0  0  0  0  0  0  0  0  0
   13.3170    8.9130    5.7900 N   0  0  0  0  0  0  0  0  0  0  0  0
   12.2180    8.1310    5.7330 C   0  0  0  0  0  0  0  0  0  0  0  0
   11.6900    8.0390    7.0200 C   0  0  0  0  0  0  0  0  0  0  0  0
   12.5130    8.8020    7.8810 C   0  0  0  0  0  0  0  0  0  0  0  0
   12.4670    9.0660    9.2710 C   0  0  0  0  0  0  0  0  0  0  0  0
   10.4800    7.2870    7.4570 C   0  0  0  0  0  0  0  0  0  0  0  0
   10.4300    5.8300    7.1780 C   0  0  0  0  0  0  0  0  0  0  0  0
   11.4690    5.0270    7.7460 N   0  0  0  0  0  0  0  0  0  0  0  0
   12.6927    9.7627   11.7443 H   0  0  0  0  0  0  0  0  0  0  0  0
   15.1643   11.0321    9.4834 H   0  0  0  0  0  0  0  0  0  0  0  0
   15.2520   10.5540    7.1108 H   0  0  0  0  0  0  0  0  0  0  0  0
   13.8932    9.1440    5.0259 H   0  0  0  0  0  0  0  0  0  0  0  0
   11.8362    7.6809    4.8864 H   0  0  0  0  0  0  0  0  0  0  0  0
   11.7181    8.6534    9.8489 H   0  0  0  0  0  0  0  0  0  0  0  0
    9.6358    7.7331    6.9741 H   0  0  0  0  0  0  0  0  0  0  0  0
   10.4922    7.3557    8.5247 H   0  0  0  0  0  0  0  0  0  0  0  0
   10.4666    5.7026    6.1162 H   0  0  0  0  0  0  0  0  0  0  0  0
    9.5279    5.4878    7.6407 H   0  0  0  0  0  0  0  0  0  0  0  0
   12.3669    5.3007    7.3469 H   0  0  0  0  0  0  0  0  0  0  0  0
   11.2906    4.0442    7.5394 H   0  0  0  0  0  0  0  0  0  0  0  0
  1  2  1  0  0  0  0
  1 14  1  0  0  0  0
  2 10  2  0  0  0  0
  2  3  1  0  0  0  0
  3  4  2  0  0  0  0
  3 15  1  0  0  0  0
  4  5  1  0  0  0  0
  4 16  1  0  0  0  0
  5  6  1  0  0  0  0
  5  9  2  0  0  0  0
  6  7  1  0  0  0  0
  6 17  1  0  0  0  0
  7  8  2  0  0  0  0
  7 18  1  0  0  0  0
  8 11  1  0  0  0  0
  8  9  1  0  0  0  0
  9 10  1  0  0  0  0
 10 19  1  0  0  0  0
 11 12  1  0  0  0  0
 11 20  1  0  0  0  0
 11 21  1  0  0  0  0
 12 13  1  0  0  0  0
 12 22  1  0  0  0  0
 12 23  1  0  0  0  0
 13 24  1  0  0  0  0
 13 25  1  0  0  0  0
M  END
>  <InstanceId>
2YMD_SRO_A_1213

>  <ChemCompId>
SRO

>  <PdbId>
2YMD

>  <ChainId>
A

>  <ResidueNumber>
1213

>  <InsertionCode>


>  <Model>
1

>  <AltIds>


>  <MissingHeavyAtoms>
0

>  <ObservedFormula>
C10 N2 O

>  <Name>
SEROTONIN

>  <SystematicName>
3-(2-aminoethyl)-1H-indol-5-ol

>  <Synonyms>
3-(2-AMINOETHYL)-1H-INDOL-5-OL

>  <Type>
NON-POLYMER

>  <Formula>
C10 H12 N2 O

>  <MolecularWeight>
176.215

>  <ModifiedDate>
2011-06-04

>  <Parent>


>  <OneLetterCode>


>  <SubcomponentList>


>  <AmbiguousFlag>


>  <InChI>
InChI=1S/C10H12N2O/c11-4-3-7-6-12-10-2-1-8(13)5-9(7)10/h1-2,5-6,12-13H,3-4,11H2

>  <InChIKey>
QZAYGJVTTNCVMB-UHFFFAOYSA-N

>  <SMILES>
c1cc2c(cc1O)c(c[nH]2)CCN

$$$$
2YMD_SRO_B_1212
 OpenBabel06201615513D
Coordinates from PDB:2YMD:B:1212 Model:1 without hydrogens
 25 26  0  0  0  0  0  0  0  0999 V2000
    5.8490   21.0390   33.5290 O   0  0  0  0  0  0  0  0  0  0  0  0
    5.0380   21.9510   32.8710 C   0  0  0  0  0  0  0  0  0  0  0  0
    5.5220   23.2160   32.5020 C   0  0  0  0  0  0  0  0  0  0  0  0
    4.7030   24.1190   31.8200 C   0  0  0  0  0  0  0  0  0  0  0  0
    3.3580   23.7600   31.5120 C   0  0  0  0  0  0  0  0  0  0  0  0
    2.3430   24.4490   30.8700 N   0  0  0  0  0  0  0  0  0  0  0  0
    1.2340   23.6770   30.8200 C   0  0  0  0  0  0  0  0  0  0  0  0
    1.5330   22.4630   31.4430 C   0  0  0  0  0  0  0  0  0  0  0  0
    2.8830   22.5220   31.8790 C   0  0  0  0  0  0  0  0  0  0  0  0
    3.7270   21.6030   32.5530 C   0  0  0  0  0  0  0  0  0  0  0  0
    0.6180   21.2970   31.6330 C   0  0  0  0  0  0  0  0  0  0  0  0
   -0.0780   20.7760   30.4260 C   0  0  0  0  0  0  0  0  0  0  0  0
    0.7620   20.3850   29.3270 N   0  0  0  0  0  0  0  0  0  0  0  0
    5.5107   20.1987   33.7685 H   0  0  0  0  0  0  0  0  0  0  0  0
    6.4914   23.4812   32.7366 H   0  0  0  0  0  0  0  0  0  0  0  0
    5.0699   25.0421   31.5403 H   0  0  0  0  0  0  0  0  0  0  0  0
    2.4173   25.3607   30.5059 H   0  0  0  0  0  0  0  0  0  0  0  0
    0.3293   23.9378   30.3975 H   0  0  0  0  0  0  0  0  0  0  0  0
    3.3677   20.6702   32.8096 H   0  0  0  0  0  0  0  0  0  0  0  0
   -0.1331   21.5885   32.3371 H   0  0  0  0  0  0  0  0  0  0  0  0
    1.2528   20.4971   31.9524 H   0  0  0  0  0  0  0  0  0  0  0  0
   -0.7393   21.5406   30.0752 H   0  0  0  0  0  0  0  0  0  0  0  0
   -0.5688   19.8798   30.7436 H   0  0  0  0  0  0  0  0  0  0  0  0
    1.2627   21.2009   28.9747 H   0  0  0  0  0  0  0  0  0  0  0  0
    0.1865   19.9916   28.5824 H   0  0  0  0  0  0  0  0  0  0  0  0
  1  2  1  0  0  0  0
  1 14  1  0  0  0  0
  2 10  2  0  0  0  0
  2  3  1  0  0  0  0
  3  4  2  0  0  0  0
  3 15  1  0  0  0  0
  4  5  1  0  0  0  0
  4 16  1  0  0  0  0
  5  6  1  0  0  0  0
  5  9  2  0  0  0  0
  6  7  1  0  0  0  0
  6 17  1  0  0  0  0
  7  8  2  0  0  0  0
  7 18  1  0  0  0  0
  8 11  1  0  0  0  0
  8  9  1  0  0  0  0
  9 10  1  0  0  0  0
 10 19  1  0  0  0  0
 11 12  1  0  0  0  0
 11 20  1  0  0  0  0
 11 21  1  0  0  0  0
 12 13  1  0  0  0  0
 12 22  1  0  0  0  0
 12 23  1  0  0  0  0
 13 24  1  0  0  0  0
 13 25  1  0  0  0  0
M  END
>  <InstanceId>
2YMD_SRO_B_1212

>  <ChemCompId>
SRO

>  <PdbId>
2YMD

>  <ChainId>
B

>  <ResidueNumber>
1212

>  <InsertionCode>


>  <Model>
1

>  <AltIds>


>  <MissingHeavyAtoms>
0

>  <ObservedFormula>
C10 N2 O

>  <Name>
SEROTONIN

>  <SystematicName>
3-(2-aminoethyl)-1H-indol-5-ol

>  <Synonyms>
3-(2-AMINOETHYL)-1H-INDOL-5-OL

>  <Type>
NON-POLYMER

>  <Formula>
C10 H12 N2 O

>  <MolecularWeight>
176.215

>  <ModifiedDate>
2011-06-04

>  <Parent>


>  <OneLetterCode>


>  <SubcomponentList>


>  <AmbiguousFlag>


>  <InChI>
InChI=1S/C10H12N2O/c11-4-3-7-6-12-10-2-1-8(13)5-9(7)10/h1-2,5-6,12-13H,3-4,11H2

>  <InChIKey>
QZAYGJVTTNCVMB-UHFFFAOYSA-N

>  <SMILES>
c1cc2c(cc1O)c(c[nH]2)CCN

$$$$
2YMD_SRO_C_1213
 OpenBabel06201615513D
Coordinates from PDB:2YMD:C:1213 Model:1 without hydrogens
 25 26  0  0  0  0  0  0  0  0999 V2000
   15.7040    6.9200   52.6730 O   0  0  0  0  0  0  0  0  0  0  0  0
   15.0080    7.6250   53.6350 C   0  0  0  0  0  0  0  0  0  0  0  0
   15.5740    8.7440   54.2540 C   0  0  0  0  0  0  0  0  0  0  0  0
   14.8610    9.4500   55.2180 C   0  0  0  0  0  0  0  0  0  0  0  0
   13.5540    9.0230   55.5900 C   0  0  0  0  0  0  0  0  0  0  0  0
   12.6420    9.5260   56.5010 N   0  0  0  0  0  0  0  0  0  0  0  0
   11.5230    8.7640   56.4910 C   0  0  0  0  0  0  0  0  0  0  0  0
   11.7100    7.7470   55.5560 C   0  0  0  0  0  0  0  0  0  0  0  0
   12.9990    7.9190   54.9840 C   0  0  0  0  0  0  0  0  0  0  0  0
   13.7290    7.2160   53.9970 C   0  0  0  0  0  0  0  0  0  0  0  0
   10.7480    6.6610   55.2000 C   0  0  0  0  0  0  0  0  0  0  0  0
    9.3690    7.0700   54.8320 C   0  0  0  0  0  0  0  0  0  0  0  0
    9.2380    8.1330   53.8750 N   0  0  0  0  0  0  0  0  0  0  0  0
   15.3132    6.1720   52.2660 H   0  0  0  0  0  0  0  0  0  0  0  0
   16.5255    9.0478   53.9944 H   0  0  0  0  0  0  0  0  0  0  0  0
   15.2787   10.2822   55.6630 H   0  0  0  0  0  0  0  0  0  0  0  0
   12.7850   10.3170   57.0695 H   0  0  0  0  0  0  0  0  0  0  0  0
   10.6823    8.9099   57.0715 H   0  0  0  0  0  0  0  0  0  0  0  0
   13.3082    6.3914   53.5410 H   0  0  0  0  0  0  0  0  0  0  0  0
   10.6754    6.0062   56.0431 H   0  0  0  0  0  0  0  0  0  0  0  0
   11.1497    6.2163   54.3135 H   0  0  0  0  0  0  0  0  0  0  0  0
    8.8741    7.3799   55.7286 H   0  0  0  0  0  0  0  0  0  0  0  0
    8.9426    6.2124   54.3550 H   0  0  0  0  0  0  0  0  0  0  0  0
    9.6275    8.9913   54.2648 H   0  0  0  0  0  0  0  0  0  0  0  0
    8.2516    8.2752   53.6577 H   0  0  0  0  0  0  0  0  0  0  0  0
  1  2  1  0  0  0  0
  1 14  1  0  0  0  0
  2 10  2  0  0  0  0
  2  3  1  0  0  0  0
  3  4  2  0  0  0  0
  3 15  1  0  0  0  0
  4  5  1  0  0  0  0
  4 16  1  0  0  0  0
  5  6  1  0  0  0  0
  5  9  2  0  0  0  0
  6  7  1  0  0  0  0
  6 17  1  0  0  0  0
  7  8  2  0  0  0  0
  7 18  1  0  0  0  0
  8 11  1  0  0  0  0
  8  9  1  0  0  0  0
  9 10  1  0  0  0  0
 10 19  1  0  0  0  0
 11 12  1  0  0  0  0
 11 20  1  0  0  0  0
 11 21  1  0  0  0  0
 12 13  1  0  0  0  0
 12 22  1  0  0  0  0
 12 23  1  0  0  0  0
 13 24  1  0  0  0  0
 13 25  1  0  0  0  0
M  END
>  <InstanceId>
2YMD_SRO_C_1213

>  <ChemCompId>
SRO

>  <PdbId>
2YMD

>  <ChainId>
C

>  <ResidueNumber>
1213

>  <InsertionCode>


>  <Model>
1

>  <AltIds>


>  <MissingHeavyAtoms>
0

>  <ObservedFormula>
C10 N2 O

>  <Name>
SEROTONIN

>  <SystematicName>
3-(2-aminoethyl)-1H-indol-5-ol

>  <Synonyms>
3-(2-AMINOETHYL)-1H-INDOL-5-OL

>  <Type>
NON-POLYMER

>  <Formula>
C10 H12 N2 O

>  <MolecularWeight>
176.215

>  <ModifiedDate>
2011-06-04

>  <Parent>


>  <OneLetterCode>


>  <SubcomponentList>


>  <AmbiguousFlag>


>  <InChI>
InChI=1S/C10H12N2O/c11-4-3-7-6-12-10-2-1-8(13)5-9(7)10/h1-2,5-6,12-13H,3-4,11H2

>  <InChIKey>
QZAYGJVTTNCVMB-UHFFFAOYSA-N

>  <SMILES>
c1cc2c(cc1O)c(c[nH]2)CCN

$$$$
2YMD_SRO_D_1214
 OpenBabel06201615513D
Coordinates from PDB:2YMD:D:1214 Model:1 without hydrogens
 25 26  0  0  0  0  0  0  0  0999 V2000
   29.3180  -12.5440   42.6280 O   0  0  0  0  0  0  0  0  0  0  0  0
   29.4990  -13.1040   43.8840 C   0  0  0  0  0  0  0  0  0  0  0  0
   30.5900  -12.7310   44.6800 C   0  0  0  0  0  0  0  0  0  0  0  0
   30.7740  -13.2740   45.9500 C   0  0  0  0  0  0  0  0  0  0  0  0
   29.8370  -14.2250   46.4380 C   0  0  0  0  0  0  0  0  0  0  0  0
   29.7740  -14.9140   47.6370 N   0  0  0  0  0  0  0  0  0  0  0  0
   28.6900  -15.7160   47.6320 C   0  0  0  0  0  0  0  0  0  0  0  0
   28.0360  -15.5460   46.4170 C   0  0  0  0  0  0  0  0  0  0  0  0
   28.7670  -14.5970   45.6570 C   0  0  0  0  0  0  0  0  0  0  0  0
   28.5860  -14.0390   44.3640 C   0  0  0  0  0  0  0  0  0  0  0  0
   26.7920  -16.2360   45.9790 C   0  0  0  0  0  0  0  0  0  0  0  0
   25.6310  -16.1160   46.9010 C   0  0  0  0  0  0  0  0  0  0  0  0
   25.2310  -14.7910   47.2890 N   0  0  0  0  0  0  0  0  0  0  0  0
   28.5855  -12.7993   42.1024 H   0  0  0  0  0  0  0  0  0  0  0  0
   31.2689  -12.0424   44.3196 H   0  0  0  0  0  0  0  0  0  0  0  0
   31.5798  -12.9895   46.5286 H   0  0  0  0  0  0  0  0  0  0  0  0
   30.4187  -14.8315   48.3765 H   0  0  0  0  0  0  0  0  0  0  0  0
   28.3973  -16.3453   48.3958 H   0  0  0  0  0  0  0  0  0  0  0  0
   27.7822  -14.3249   43.7833 H   0  0  0  0  0  0  0  0  0  0  0  0
   27.0154  -17.2762   45.8649 H   0  0  0  0  0  0  0  0  0  0  0  0
   26.4950  -15.7547   45.0707 H   0  0  0  0  0  0  0  0  0  0  0  0
   25.8732  -16.6530   47.7942 H   0  0  0  0  0  0  0  0  0  0  0  0
   24.8004  -16.5027   46.3483 H   0  0  0  0  0  0  0  0  0  0  0  0
   25.9798  -14.3533   47.8258 H   0  0  0  0  0  0  0  0  0  0  0  0
   24.3885  -14.8441   47.8615 H   0  0  0  0  0  0  0  0  0  0  0  0
  1  2  1  0  0  0  0
  1 14  1  0  0  0  0
  2 10  2  0  0  0  0
  2  3  1  0  0  0  0
  3  4  2  0  0  0  0
  3 15  1  0  0  0  0
  4  5  1  0  0  0  0
  4 16  1  0  0  0  0
  5  6  1  0  0  0  0
  5  9  2  0  0  0  0
  6  7  1  0  0  0  0
  6 17  1  0  0  0  0
  7  8  2  0  0  0  0
  7 18  1  0  0  0  0
  8 11  1  0  0  0  0
  8  9  1  0  0  0  0
  9 10  1  0  0  0  0
 10 19  1  0  0  0  0
 11 12  1  0  0  0  0
 11 20  1  0  0  0  0
 11 21  1  0  0  0  0
 12 13  1  0  0  0  0
 12 22  1  0  0  0  0
 12 23  1  0  0  0  0
 13 24  1  0  0  0  0
 13 25  1  0  0  0  0
M  END
>  <InstanceId>
2YMD_SRO_D_1214

>  <ChemCompId>
SRO

>  <PdbId>
2YMD

>  <ChainId>
D

>  <ResidueNumber>
1214

>  <InsertionCode>


>  <Model>
1

>  <AltIds>


>  <MissingHeavyAtoms>
0

>  <ObservedFormula>
C10 N2 O

>  <Name>
SEROTONIN

>  <SystematicName>
3-(2-aminoethyl)-1H-indol-5-ol

>  <Synonyms>
3-(2-AMINOETHYL)-1H-INDOL-5-OL

>  <Type>
NON-POLYMER

>  <Formula>
C10 H12 N2 O

>  <MolecularWeight>
176.215

>  <ModifiedDate>
2011-06-04

>  <Parent>


>  <OneLetterCode>


>  <SubcomponentList>


>  <AmbiguousFlag>


>  <InChI>
InChI=1S/C10H12N2O/c11-4-3-7-6-12-10-2-1-8(13)5-9(7)10/h1-2,5-6,12-13H,3-4,11H2

>  <InChIKey>
QZAYGJVTTNCVMB-UHFFFAOYSA-N

>  <SMILES>
c1cc2c(cc1O)c(c[nH]2)CCN

$$$$
2YMD_SRO_E_1213
 OpenBabel06201615513D
Coordinates from PDB:2YMD:E:1213 Model:1 without hydrogens
 25 26  0  0  0  0  0  0  0  0999 V2000
   27.7840  -10.5350   17.0420 O   0  0  0  0  0  0  0  0  0  0  0  0
   28.4300  -11.7340   16.7900 C   0  0  0  0  0  0  0  0  0  0  0  0
   29.8180  -11.7580   16.6020 C   0  0  0  0  0  0  0  0  0  0  0  0
   30.4740  -12.9660   16.3690 C   0  0  0  0  0  0  0  0  0  0  0  0
   29.7320  -14.1780   16.3090 C   0  0  0  0  0  0  0  0  0  0  0  0
   30.1360  -15.4820   16.0910 N   0  0  0  0  0  0  0  0  0  0  0  0
   29.0610  -16.2920   16.1270 C   0  0  0  0  0  0  0  0  0  0  0  0
   27.9340  -15.5080   16.3640 C   0  0  0  0  0  0  0  0  0  0  0  0
   28.3670  -14.1570   16.4850 C   0  0  0  0  0  0  0  0  0  0  0  0
   27.7090  -12.9270   16.7380 C   0  0  0  0  0  0  0  0  0  0  0  0
   26.5360  -16.0160   16.4850 C   0  0  0  0  0  0  0  0  0  0  0  0
   26.2010  -16.6190   17.8030 C   0  0  0  0  0  0  0  0  0  0  0  0
   27.0250  -17.7090   18.2430 N   0  0  0  0  0  0  0  0  0  0  0  0
   26.8556  -10.5204   17.1676 H   0  0  0  0  0  0  0  0  0  0  0  0
   30.3568  -10.8785   16.6361 H   0  0  0  0  0  0  0  0  0  0  0  0
   31.4978  -12.9808   16.2401 H   0  0  0  0  0  0  0  0  0  0  0  0
   31.0635  -15.7726   15.9342 H   0  0  0  0  0  0  0  0  0  0  0  0
   29.0703  -17.3162   16.0009 H   0  0  0  0  0  0  0  0  0  0  0  0
   26.6876  -12.9141   16.8850 H   0  0  0  0  0  0  0  0  0  0  0  0
   26.3864  -16.7605   15.7311 H   0  0  0  0  0  0  0  0  0  0  0  0
   25.8967  -15.1654   16.3728 H   0  0  0  0  0  0  0  0  0  0  0  0
   25.1936  -16.9756   17.7494 H   0  0  0  0  0  0  0  0  0  0  0  0
   26.3625  -15.8391   18.5175 H   0  0  0  0  0  0  0  0  0  0  0  0
   26.9198  -18.4952   17.6017 H   0  0  0  0  0  0  0  0  0  0  0  0
   26.7400  -17.9940   19.1800 H   0  0  0  0  0  0  0  0  0  0  0  0
  1  2  1  0  0  0  0
  1 14  1  0  0  0  0
  2 10  2  0  0  0  0
  2  3  1  0  0  0  0
  3  4  2  0  0  0  0
  3 15  1  0  0  0  0
  4  5  1  0  0  0  0
  4 16  1  0  0  0  0
  5  6  1  0  0  0  0
  5  9  2  0  0  0  0
  6  7  1  0  0  0  0
  6 17  1  0  0  0  0
  7  8  2  0  0  0  0
  7 18  1  0  0  0  0
  8 11  1  0  0  0  0
  8  9  1  0  0  0  0
  9 10  1  0  0  0  0
 10 19  1  0  0  0  0
 11 12  1  0  0  0  0
 11 20  1  0  0  0  0
 11 21  1  0  0  0  0
 12 13  1  0  0  0  0
 12 22  1  0  0  0  0
 12 23  1  0  0  0  0
 13 24  1  0  0  0  0
 13 25  1  0  0  0  0
M  END
>  <InstanceId>
2YMD_SRO_E_1213

>  <ChemCompId>
SRO

>  <PdbId>
2YMD

>  <ChainId>
E

>  <ResidueNumber>
1213

>  <InsertionCode>


>  <Model>
1

>  <AltIds>


>  <MissingHeavyAtoms>
0

>  <ObservedFormula>
C10 N2 O

>  <Name>
SEROTONIN

>  <SystematicName>
3-(2-aminoethyl)-1H-indol-5-ol

>  <Synonyms>
3-(2-AMINOETHYL)-1H-INDOL-5-OL

>  <Type>
NON-POLYMER

>  <Formula>
C10 H12 N2 O

>  <MolecularWeight>
176.215

>  <ModifiedDate>
2011-06-04

>  <Parent>


>  <OneLetterCode>


>  <SubcomponentList>


>  <AmbiguousFlag>


>  <InChI>
InChI=1S/C10H12N2O/c11-4-3-7-6-12-10-2-1-8(13)5-9(7)10/h1-2,5-6,12-13H,3-4,11H2

>  <InChIKey>
QZAYGJVTTNCVMB-UHFFFAOYSA-N

>  <SMILES>
c1cc2c(cc1O)c(c[nH]2)CCN

$$$$
2YMD_SRO_F_1214
 OpenBabel06201615513D
Coordinates from PDB:2YMD:F:1214 Model:1 without hydrogens
 25 26  0  0  0  0  0  0  0  0999 V2000
  -31.8210  -51.3730   46.4150 O   0  0  0  0  0  0  0  0  0  0  0  0
  -30.9160  -52.3990   46.6210 C   0  0  0  0  0  0  0  0  0  0  0  0
  -31.3700  -53.7170   46.7370 C   0  0  0  0  0  0  0  0  0  0  0  0
  -30.4660  -54.7570   46.9270 C   0  0  0  0  0  0  0  0  0  0  0  0
  -29.0740  -54.4840   47.0180 C   0  0  0  0  0  0  0  0  0  0  0  0
  -27.9920  -55.3230   47.2080 N   0  0  0  0  0  0  0  0  0  0  0  0
  -26.8580  -54.5920   47.2250 C   0  0  0  0  0  0  0  0  0  0  0  0
  -27.2050  -53.2550   47.0500 C   0  0  0  0  0  0  0  0  0  0  0  0
  -28.6210  -53.1890   46.9110 C   0  0  0  0  0  0  0  0  0  0  0  0
  -29.5480  -52.1340   46.7080 C   0  0  0  0  0  0  0  0  0  0  0  0
  -26.2470  -52.1160   46.9940 C   0  0  0  0  0  0  0  0  0  0  0  0
  -25.1290  -52.3190   46.0320 C   0  0  0  0  0  0  0  0  0  0  0  0
  -25.4830  -52.4690   44.6480 N   0  0  0  0  0  0  0  0  0  0  0  0
  -31.5181  -50.4897   46.3371 H   0  0  0  0  0  0  0  0  0  0  0  0
  -32.3806  -53.9188   46.6813 H   0  0  0  0  0  0  0  0  0  0  0  0
  -30.8065  -55.7283   47.0020 H   0  0  0  0  0  0  0  0  0  0  0  0
  -28.0411  -56.3005   47.3142 H   0  0  0  0  0  0  0  0  0  0  0  0
  -25.9013  -54.9594   47.3464 H   0  0  0  0  0  0  0  0  0  0  0  0
  -29.2083  -51.1631   46.6240 H   0  0  0  0  0  0  0  0  0  0  0  0
  -25.8313  -51.9763   47.9700 H   0  0  0  0  0  0  0  0  0  0  0  0
  -26.7969  -51.2620   46.6575 H   0  0  0  0  0  0  0  0  0  0  0  0
  -24.6032  -53.2023   46.3289 H   0  0  0  0  0  0  0  0  0  0  0  0
  -24.5543  -51.4176   46.0773 H   0  0  0  0  0  0  0  0  0  0  0  0
  -26.0378  -53.3166   44.5289 H   0  0  0  0  0  0  0  0  0  0  0  0
  -24.6348  -52.5359   44.0854 H   0  0  0  0  0  0  0  0  0  0  0  0
  1  2  1  0  0  0  0
  1 14  1  0  0  0  0
  2 10  2  0  0  0  0
  2  3  1  0  0  0  0
  3  4  2  0  0  0  0
  3 15  1  0  0  0  0
  4  5  1  0  0  0  0
  4 16  1  0  0  0  0
  5  6  1  0  0  0  0
  5  9  2  0  0  0  0
  6  7  1  0  0  0  0
  6 17  1  0  0  0  0
  7  8  2  0  0  0  0
  7 18  1  0  0  0  0
  8 11  1  0  0  0  0
  8  9  1  0  0  0  0
  9 10  1  0  0  0  0
 10 19  1  0  0  0  0
 11 12  1  0  0  0  0
 11 20  1  0  0  0  0
 11 21  1  0  0  0  0
 12 13  1  0  0  0  0
 12 22  1  0  0  0  0
 12 23  1  0  0  0  0
 13 24  1  0  0  0  0
 13 25  1  0  0  0  0
M  END
>  <InstanceId>
2YMD_SRO_F_1214

>  <ChemCompId>
SRO

>  <PdbId>
2YMD

>  <ChainId>
F

>  <ResidueNumber>
1214

>  <InsertionCode>


>  <Model>
1

>  <AltIds>


>  <MissingHeavyAtoms>
0

>  <ObservedFormula>
C10 N2 O

>  <Name>
SEROTONIN

>  <SystematicName>
3-(2-aminoethyl)-1H-indol-5-ol

>  <Synonyms>
3-(2-AMINOETHYL)-1H-INDOL-5-OL

>  <Type>
NON-POLYMER

>  <Formula>
C10 H12 N2 O

>  <MolecularWeight>
176.215

>  <ModifiedDate>
2011-06-04

>  <Parent>


>  <OneLetterCode>


>  <SubcomponentList>


>  <AmbiguousFlag>


>  <InChI>
InChI=1S/C10H12N2O/c11-4-3-7-6-12-10-2-1-8(13)5-9(7)10/h1-2,5-6,12-13H,3-4,11H2

>  <InChIKey>
QZAYGJVTTNCVMB-UHFFFAOYSA-N

>  <SMILES>
c1cc2c(cc1O)c(c[nH]2)CCN

$$$$
2YMD_SRO_G_1213
 OpenBabel06201615513D
Coordinates from PDB:2YMD:G:1213 Model:1 without hydrogens
 25 26  0  0  0  0  0  0  0  0999 V2000
  -46.2240  -30.6220   51.3640 O   0  0  0  0  0  0  0  0  0  0  0  0
  -45.9980  -30.7240   52.7230 C   0  0  0  0  0  0  0  0  0  0  0  0
  -46.8340  -31.4910   53.5530 C   0  0  0  0  0  0  0  0  0  0  0  0
  -46.5750  -31.5820   54.9240 C   0  0  0  0  0  0  0  0  0  0  0  0
  -45.4660  -30.8890   55.4830 C   0  0  0  0  0  0  0  0  0  0  0  0
  -44.9800  -30.8030   56.7800 N   0  0  0  0  0  0  0  0  0  0  0  0
  -43.8870  -30.0080   56.7970 C   0  0  0  0  0  0  0  0  0  0  0  0
  -43.6560  -29.5700   55.4960 C   0  0  0  0  0  0  0  0  0  0  0  0
  -44.6540  -30.1360   54.6650 C   0  0  0  0  0  0  0  0  0  0  0  0
  -44.9130  -30.0500   53.2770 C   0  0  0  0  0  0  0  0  0  0  0  0
  -42.5600  -28.6790   55.0280 C   0  0  0  0  0  0  0  0  0  0  0  0
  -41.1880  -29.1850   55.2600 C   0  0  0  0  0  0  0  0  0  0  0  0
  -41.0050  -30.5670   54.9400 N   0  0  0  0  0  0  0  0  0  0  0  0
  -45.6525  -30.1045   50.8316 H   0  0  0  0  0  0  0  0  0  0  0  0
  -47.6424  -31.9891   53.1487 H   0  0  0  0  0  0  0  0  0  0  0  0
  -47.1874  -32.1510   55.5292 H   0  0  0  0  0  0  0  0  0  0  0  0
  -45.3703  -31.2510   57.5650 H   0  0  0  0  0  0  0  0  0  0  0  0
  -43.3234  -29.7681   57.6276 H   0  0  0  0  0  0  0  0  0  0  0  0
  -44.2954  -29.4856   52.6728 H   0  0  0  0  0  0  0  0  0  0  0  0
  -42.6566  -27.7421   55.5356 H   0  0  0  0  0  0  0  0  0  0  0  0
  -42.6720  -28.6061   53.9664 H   0  0  0  0  0  0  0  0  0  0  0  0
  -40.9510  -29.0469   56.2942 H   0  0  0  0  0  0  0  0  0  0  0  0
  -40.5449  -28.6330   54.6069 H   0  0  0  0  0  0  0  0  0  0  0  0
  -41.6011  -31.1368   55.5403 H   0  0  0  0  0  0  0  0  0  0  0  0
  -40.0290  -30.8238   55.0877 H   0  0  0  0  0  0  0  0  0  0  0  0
  1  2  1  0  0  0  0
  1 14  1  0  0  0  0
  2 10  2  0  0  0  0
  2  3  1  0  0  0  0
  3  4  2  0  0  0  0
  3 15  1  0  0  0  0
  4  5  1  0  0  0  0
  4 16  1  0  0  0  0
  5  6  1  0  0  0  0
  5  9  2  0  0  0  0
  6  7  1  0  0  0  0
  6 17  1  0  0  0  0
  7  8  2  0  0  0  0
  7 18  1  0  0  0  0
  8 11  1  0  0  0  0
  8  9  1  0  0  0  0
  9 10  1  0  0  0  0
 10 19  1  0  0  0  0
 11 12  1  0  0  0  0
 11 20  1  0  0  0  0
 11 21  1  0  0  0  0
 12 13  1  0  0  0  0
 12 22  1  0  0  0  0
 12 23  1  0  0  0  0
 13 24  1  0  0  0  0
 13 25  1  0  0  0  0
M  END
>  <InstanceId>
2YMD_SRO_G_1213

>  <ChemCompId>
SRO

>  <PdbId>
2YMD

>  <ChainId>
G

>  <ResidueNumber>
1213

>  <InsertionCode>


>  <Model>
1

>  <AltIds>


>  <MissingHeavyAtoms>
0

>  <ObservedFormula>
C10 N2 O

>  <Name>
SEROTONIN

>  <SystematicName>
3-(2-aminoethyl)-1H-indol-5-ol

>  <Synonyms>
3-(2-AMINOETHYL)-1H-INDOL-5-OL

>  <Type>
NON-POLYMER

>  <Formula>
C10 H12 N2 O

>  <MolecularWeight>
176.215

>  <ModifiedDate>
2011-06-04

>  <Parent>


>  <OneLetterCode>


>  <SubcomponentList>


>  <AmbiguousFlag>


>  <InChI>
InChI=1S/C10H12N2O/c11-4-3-7-6-12-10-2-1-8(13)5-9(7)10/h1-2,5-6,12-13H,3-4,11H2

>  <InChIKey>
QZAYGJVTTNCVMB-UHFFFAOYSA-N

>  <SMILES>
c1cc2c(cc1O)c(c[nH]2)CCN

$$$$
2YMD_SRO_H_1206
 OpenBabel06201615513D
Coordinates from PDB:2YMD:H:1206 Model:1 without hydrogens
 25 26  0  0  0  0  0  0  0  0999 V2000
  -53.4500  -20.3490   28.8180 O   0  0  0  0  0  0  0  0  0  0  0  0
  -54.0360  -19.2450   29.4230 C   0  0  0  0  0  0  0  0  0  0  0  0
  -55.3840  -19.2700   29.8060 C   0  0  0  0  0  0  0  0  0  0  0  0
  -55.9670  -18.1730   30.4400 C   0  0  0  0  0  0  0  0  0  0  0  0
  -55.1930  -17.0030   30.6820 C   0  0  0  0  0  0  0  0  0  0  0  0
  -55.5170  -15.7910   31.2720 N   0  0  0  0  0  0  0  0  0  0  0  0
  -54.4250  -14.9920   31.2690 C   0  0  0  0  0  0  0  0  0  0  0  0
  -53.3740  -15.6910   30.6710 C   0  0  0  0  0  0  0  0  0  0  0  0
  -53.8700  -16.9680   30.2940 C   0  0  0  0  0  0  0  0  0  0  0  0
  -53.2810  -18.0960   29.6650 C   0  0  0  0  0  0  0  0  0  0  0  0
  -51.9740  -15.2070   30.4380 C   0  0  0  0  0  0  0  0  0  0  0  0
  -51.1770  -14.7810   31.6220 C   0  0  0  0  0  0  0  0  0  0  0  0
  -51.3110  -15.5710   32.8140 N   0  0  0  0  0  0  0  0  0  0  0  0
  -52.5479  -20.3214   28.5660 H   0  0  0  0  0  0  0  0  0  0  0  0
  -55.9522  -20.1104   29.6166 H   0  0  0  0  0  0  0  0  0  0  0  0
  -56.9560  -18.2093   30.7326 H   0  0  0  0  0  0  0  0  0  0  0  0
  -56.3999  -15.5503   31.6349 H   0  0  0  0  0  0  0  0  0  0  0  0
  -54.3770  -14.0317   31.6439 H   0  0  0  0  0  0  0  0  0  0  0  0
  -52.2882  -18.0665   29.3848 H   0  0  0  0  0  0  0  0  0  0  0  0
  -52.0329  -14.3689   29.7754 H   0  0  0  0  0  0  0  0  0  0  0  0
  -51.4545  -16.0621   30.0588 H   0  0  0  0  0  0  0  0  0  0  0  0
  -51.4669  -13.7797   31.8635 H   0  0  0  0  0  0  0  0  0  0  0  0
  -50.1551  -14.8943   31.3257 H   0  0  0  0  0  0  0  0  0  0  0  0
  -52.2698  -15.5097   33.1565 H   0  0  0  0  0  0  0  0  0  0  0  0
  -50.6720  -15.2207   33.5277 H   0  0  0  0  0  0  0  0  0  0  0  0
  1  2  1  0  0  0  0
  1 14  1  0  0  0  0
  2 10  2  0  0  0  0
  2  3  1  0  0  0  0
  3  4  2  0  0  0  0
  3 15  1  0  0  0  0
  4  5  1  0  0  0  0
  4 16  1  0  0  0  0
  5  6  1  0  0  0  0
  5  9  2  0  0  0  0
  6  7  1  0  0  0  0
  6 17  1  0  0  0  0
  7  8  2  0  0  0  0
  7 18  1  0  0  0  0
  8 11  1  0  0  0  0
  8  9  1  0  0  0  0
  9 10  1  0  0  0  0
 10 19  1  0  0  0  0
 11 12  1  0  0  0  0
 11 20  1  0  0  0  0
 11 21  1  0  0  0  0
 12 13  1  0  0  0  0
 12 22  1  0  0  0  0
 12 23  1  0  0  0  0
 13 24  1  0  0  0  0
 13 25  1  0  0  0  0
M  END
>  <InstanceId>
2YMD_SRO_H_1206

>  <ChemCompId>
SRO

>  <PdbId>
2YMD

>  <ChainId>
H

>  <ResidueNumber>
1206

>  <InsertionCode>


>  <Model>
1

>  <AltIds>


>  <MissingHeavyAtoms>
0

>  <ObservedFormula>
C10 N2 O

>  <Name>
SEROTONIN

>  <SystematicName>
3-(2-aminoethyl)-1H-indol-5-ol

>  <Synonyms>
3-(2-AMINOETHYL)-1H-INDOL-5-OL

>  <Type>
NON-POLYMER

>  <Formula>
C10 H12 N2 O

>  <MolecularWeight>
176.215

>  <ModifiedDate>
2011-06-04

>  <Parent>


>  <OneLetterCode>


>  <SubcomponentList>


>  <AmbiguousFlag>


>  <InChI>
InChI=1S/C10H12N2O/c11-4-3-7-6-12-10-2-1-8(13)5-9(7)10/h1-2,5-6,12-13H,3-4,11H2

>  <InChIKey>
QZAYGJVTTNCVMB-UHFFFAOYSA-N

>  <SMILES>
c1cc2c(cc1O)c(c[nH]2)CCN

$$$$
2YMD_SRO_I_1213
 OpenBabel06201615513D
Coordinates from PDB:2YMD:I:1213 Model:1 without hydrogens
 25 26  0  0  0  0  0  0  0  0999 V2000
  -43.4230  -34.6370   10.0130 O   0  0  0  0  0  0  0  0  0  0  0  0
  -43.8430  -33.7840    9.0070 C   0  0  0  0  0  0  0  0  0  0  0  0
  -45.0660  -33.9860    8.3580 C   0  0  0  0  0  0  0  0  0  0  0  0
  -45.4720  -33.1050    7.3520 C   0  0  0  0  0  0  0  0  0  0  0  0
  -44.6450  -32.0130    6.9690 C   0  0  0  0  0  0  0  0  0  0  0  0
  -44.8110  -31.0210    6.0210 N   0  0  0  0  0  0  0  0  0  0  0  0
  -43.7340  -30.2030    6.0370 C   0  0  0  0  0  0  0  0  0  0  0  0
  -42.8570  -30.6690    7.0100 C   0  0  0  0  0  0  0  0  0  0  0  0
  -43.4430  -31.8170    7.6030 C   0  0  0  0  0  0  0  0  0  0  0  0
  -43.0450  -32.7040    8.6340 C   0  0  0  0  0  0  0  0  0  0  0  0
  -41.5420  -30.0680    7.3740 C   0  0  0  0  0  0  0  0  0  0  0  0
  -41.5330  -28.5900    7.5480 C   0  0  0  0  0  0  0  0  0  0  0  0
  -42.2470  -28.0760    8.6840 N   0  0  0  0  0  0  0  0  0  0  0  0
  -42.6016  -34.4901   10.4393 H   0  0  0  0  0  0  0  0  0  0  0  0
  -45.6663  -34.7830    8.6214 H   0  0  0  0  0  0  0  0  0  0  0  0
  -46.3800  -33.2480    6.8828 H   0  0  0  0  0  0  0  0  0  0  0  0
  -45.5906  -30.9249    5.4275 H   0  0  0  0  0  0  0  0  0  0  0  0
  -43.5888  -29.3785    5.4335 H   0  0  0  0  0  0  0  0  0  0  0  0
  -42.1471  -32.5472    9.1179 H   0  0  0  0  0  0  0  0  0  0  0  0
  -40.8439  -30.3121    6.6007 H   0  0  0  0  0  0  0  0  0  0  0  0
  -41.2904  -30.4755    8.3309 H   0  0  0  0  0  0  0  0  0  0  0  0
  -41.9632  -28.1562    6.6696 H   0  0  0  0  0  0  0  0  0  0  0  0
  -40.5086  -28.3297    7.7146 H   0  0  0  0  0  0  0  0  0  0  0  0
  -43.2393  -28.2918    8.5880 H   0  0  0  0  0  0  0  0  0  0  0  0
  -42.1223  -27.0649    8.7349 H   0  0  0  0  0  0  0  0  0  0  0  0
  1  2  1  0  0  0  0
  1 14  1  0  0  0  0
  2 10  2  0  0  0  0
  2  3  1  0  0  0  0
  3  4  2  0  0  0  0
  3 15  1  0  0  0  0
  4  5  1  0  0  0  0
  4 16  1  0  0  0  0
  5  6  1  0  0  0  0
  5  9  2  0  0  0  0
  6  7  1  0  0  0  0
  6 17  1  0  0  0  0
  7  8  2  0  0  0  0
  7 18  1  0  0  0  0
  8 11  1  0  0  0  0
  8  9  1  0  0  0  0
  9 10  1  0  0  0  0
 10 19  1  0  0  0  0
 11 12  1  0  0  0  0
 11 20  1  0  0  0  0
 11 21  1  0  0  0  0
 12 13  1  0  0  0  0
 12 22  1  0  0  0  0
 12 23  1  0  0  0  0
 13 24  1  0  0  0  0
 13 25  1  0  0  0  0
M  END
>  <InstanceId>
2YMD_SRO_I_1213

>  <ChemCompId>
SRO

>  <PdbId>
2YMD

>  <ChainId>
I

>  <ResidueNumber>
1213

>  <InsertionCode>


>  <Model>
1

>  <AltIds>


>  <MissingHeavyAtoms>
0

>  <ObservedFormula>
C10 N2 O

>  <Name>
SEROTONIN

>  <SystematicName>
3-(2-aminoethyl)-1H-indol-5-ol

>  <Synonyms>
3-(2-AMINOETHYL)-1H-INDOL-5-OL

>  <Type>
NON-POLYMER

>  <Formula>
C10 H12 N2 O

>  <MolecularWeight>
176.215

>  <ModifiedDate>
2011-06-04

>  <Parent>


>  <OneLetterCode>


>  <SubcomponentList>


>  <AmbiguousFlag>


>  <InChI>
InChI=1S/C10H12N2O/c11-4-3-7-6-12-10-2-1-8(13)5-9(7)10/h1-2,5-6,12-13H,3-4,11H2

>  <InChIKey>
QZAYGJVTTNCVMB-UHFFFAOYSA-N

>  <SMILES>
c1cc2c(cc1O)c(c[nH]2)CCN

$$$$
2YMD_SRO_J_1213
 OpenBabel06201615513D
Coordinates from PDB:2YMD:J:1213 Model:1 without hydrogens
 25 26  0  0  0  0  0  0  0  0999 V2000
  -30.0680  -53.9780   20.6240 O   0  0  0  0  0  0  0  0  0  0  0  0
  -29.5610  -54.3820   19.4040 C   0  0  0  0  0  0  0  0  0  0  0  0
  -30.2380  -55.3310   18.6170 C   0  0  0  0  0  0  0  0  0  0  0  0
  -29.7210  -55.7150   17.3780 C   0  0  0  0  0  0  0  0  0  0  0  0
  -28.4940  -55.1490   16.9220 C   0  0  0  0  0  0  0  0  0  0  0  0
  -27.7640  -55.3490   15.7630 N   0  0  0  0  0  0  0  0  0  0  0  0
  -26.6570  -54.5720   15.7910 C   0  0  0  0  0  0  0  0  0  0  0  0
  -26.6610  -53.8530   16.9800 C   0  0  0  0  0  0  0  0  0  0  0  0
  -27.8330  -54.2210   17.6970 C   0  0  0  0  0  0  0  0  0  0  0  0
  -28.3720  -53.8300   18.9480 C   0  0  0  0  0  0  0  0  0  0  0  0
  -25.6270  -52.8720   17.4340 C   0  0  0  0  0  0  0  0  0  0  0  0
  -25.3110  -51.7580   16.5070 C   0  0  0  0  0  0  0  0  0  0  0  0
  -26.4310  -51.0560   15.9480 N   0  0  0  0  0  0  0  0  0  0  0  0
  -29.6055  -53.3449   21.1371 H   0  0  0  0  0  0  0  0  0  0  0  0
  -31.1202  -55.7451   18.9565 H   0  0  0  0  0  0  0  0  0  0  0  0
  -30.2234  -56.4037   16.7963 H   0  0  0  0  0  0  0  0  0  0  0  0
  -28.0117  -55.9609   15.0326 H   0  0  0  0  0  0  0  0  0  0  0  0
  -25.9342  -54.5219   15.0561 H   0  0  0  0  0  0  0  0  0  0  0  0
  -27.8774  -53.1305   19.5235 H   0  0  0  0  0  0  0  0  0  0  0  0
  -24.7213  -53.4140   17.6097 H   0  0  0  0  0  0  0  0  0  0  0  0
  -26.0449  -52.4052   18.3014 H   0  0  0  0  0  0  0  0  0  0  0  0
  -24.7416  -52.1611   15.6957 H   0  0  0  0  0  0  0  0  0  0  0  0
  -24.7890  -51.0352   17.0986 H   0  0  0  0  0  0  0  0  0  0  0  0
  -26.9762  -51.6931   15.3673 H   0  0  0  0  0  0  0  0  0  0  0  0
  -26.0955  -50.2794   15.3782 H   0  0  0  0  0  0  0  0  0  0  0  0
  1  2  1  0  0  0  0
  1 14  1  0  0  0  0
  2 10  2  0  0  0  0
  2  3  1  0  0  0  0
  3  4  2  0  0  0  0
  3 15  1  0  0  0  0
  4  5  1  0  0  0  0
  4 16  1  0  0  0  0
  5  6  1  0  0  0  0
  5  9  2  0  0  0  0
  6  7  1  0  0  0  0
  6 17  1  0  0  0  0
  7  8  2  0  0  0  0
  7 18  1  0  0  0  0
  8 11  1  0  0  0  0
  8  9  1  0  0  0  0
  9 10  1  0  0  0  0
 10 19  1  0  0  0  0
 11 12  1  0  0  0  0
 11 20  1  0  0  0  0
 11 21  1  0  0  0  0
 12 13  1  0  0  0  0
 12 22  1  0  0  0  0
 12 23  1  0  0  0  0
 13 24  1  0  0  0  0
 13 25  1  0  0  0  0
M  END
>  <InstanceId>
2YMD_SRO_J_1213

>  <ChemCompId>
SRO

>  <PdbId>
2YMD

>  <ChainId>
J

>  <ResidueNumber>
1213

>  <InsertionCode>


>  <Model>
1

>  <AltIds>


>  <MissingHeavyAtoms>
0

>  <ObservedFormula>
C10 N2 O

>  <Name>
SEROTONIN

>  <SystematicName>
3-(2-aminoethyl)-1H-indol-5-ol

>  <Synonyms>
3-(2-AMINOETHYL)-1H-INDOL-5-OL

>  <Type>
NON-POLYMER

>  <Formula>
C10 H12 N2 O

>  <MolecularWeight>
176.215

>  <ModifiedDate>
2011-06-04

>  <Parent>


>  <OneLetterCode>


>  <SubcomponentList>


>  <AmbiguousFlag>


>  <InChI>
InChI=1S/C10H12N2O/c11-4-3-7-6-12-10-2-1-8(13)5-9(7)10/h1-2,5-6,12-13H,3-4,11H2

>  <InChIKey>
QZAYGJVTTNCVMB-UHFFFAOYSA-N

>  <SMILES>
c1cc2c(cc1O)c(c[nH]2)CCN

$$$$
3ADV_SRO_A_1
 OpenBabel06201615513D
Coordinates from PDB:3ADV:A:1 Model:1 without hydrogens
 25 26  0  0  0  0  0  0  0  0999 V2000
   18.6310   64.8870    9.9730 O   0  0  0  0  0  0  0  0  0  0  0  0
   17.8260   64.5690   11.0190 C   0  0  0  0  0  0  0  0  0  0  0  0
   16.4170   64.5310   10.8410 C   0  0  0  0  0  0  0  0  0  0  0  0
   15.5710   64.2040   11.9160 C   0  0  0  0  0  0  0  0  0  0  0  0
   16.1210   63.9090   13.1920 C   0  0  0  0  0  0  0  0  0  0  0  0
   15.5690   63.5640   14.4060 N   0  0  0  0  0  0  0  0  0  0  0  0
   16.5610   63.3840   15.3350 C   0  0  0  0  0  0  0  0  0  0  0  0
   17.7760   63.5980   14.7850 C   0  0  0  0  0  0  0  0  0  0  0  0
   17.5440   63.9470   13.3750 C   0  0  0  0  0  0  0  0  0  0  0  0
   18.3930   64.2800   12.2760 C   0  0  0  0  0  0  0  0  0  0  0  0
   19.1240   63.4960   15.4810 C   0  0  0  0  0  0  0  0  0  0  0  0
   19.2270   64.5110   16.6320 C   0  0  0  0  0  0  0  0  0  0  0  0
   18.9910   63.8330   17.9140 N   0  0  0  0  0  0  0  0  0  0  0  0
   19.5606   64.9127   10.0881 H   0  0  0  0  0  0  0  0  0  0  0  0
   16.0114   64.7448    9.9165 H   0  0  0  0  0  0  0  0  0  0  0  0
   14.5487   64.1783   11.7774 H   0  0  0  0  0  0  0  0  0  0  0  0
   14.6055   63.4619   14.5805 H   0  0  0  0  0  0  0  0  0  0  0  0
   16.4013   63.1209   16.3200 H   0  0  0  0  0  0  0  0  0  0  0  0
   19.4169   64.3088   12.4019 H   0  0  0  0  0  0  0  0  0  0  0  0
   19.9003   63.6918   14.7711 H   0  0  0  0  0  0  0  0  0  0  0  0
   19.2259   62.5104   15.8849 H   0  0  0  0  0  0  0  0  0  0  0  0
   18.4942   65.2787   16.4957 H   0  0  0  0  0  0  0  0  0  0  0  0
   20.2054   64.9441   16.6355 H   0  0  0  0  0  0  0  0  0  0  0  0
   18.0587   63.4192   17.9132 H   0  0  0  0  0  0  0  0  0  0  0  0
   19.0622   64.5091   18.6744 H   0  0  0  0  0  0  0  0  0  0  0  0
  1  2  1  0  0  0  0
  1 14  1  0  0  0  0
  2 10  2  0  0  0  0
  2  3  1  0  0  0  0
  3  4  2  0  0  0  0
  3 15  1  0  0  0  0
  4  5  1  0  0  0  0
  4 16  1  0  0  0  0
  5  6  1  0  0  0  0
  5  9  2  0  0  0  0
  6  7  1  0  0  0  0
  6 17  1  0  0  0  0
  7  8  2  0  0  0  0
  7 18  1  0  0  0  0
  8 11  1  0  0  0  0
  8  9  1  0  0  0  0
  9 10  1  0  0  0  0
 10 19  1  0  0  0  0
 11 12  1  0  0  0  0
 11 20  1  0  0  0  0
 11 21  1  0  0  0  0
 12 13  1  0  0  0  0
 12 22  1  0  0  0  0
 12 23  1  0  0  0  0
 13 24  1  0  0  0  0
 13 25  1  0  0  0  0
M  END
>  <InstanceId>
3ADV_SRO_A_1

>  <ChemCompId>
SRO

>  <PdbId>
3ADV

>  <ChainId>
A

>  <ResidueNumber>
1

>  <InsertionCode>


>  <Model>
1

>  <AltIds>


>  <MissingHeavyAtoms>
0

>  <ObservedFormula>
C10 N2 O

>  <Name>
SEROTONIN

>  <SystematicName>
3-(2-aminoethyl)-1H-indol-5-ol

>  <Synonyms>
3-(2-AMINOETHYL)-1H-INDOL-5-OL

>  <Type>
NON-POLYMER

>  <Formula>
C10 H12 N2 O

>  <MolecularWeight>
176.215

>  <ModifiedDate>
2011-06-04

>  <Parent>


>  <OneLetterCode>


>  <SubcomponentList>


>  <AmbiguousFlag>


>  <InChI>
InChI=1S/C10H12N2O/c11-4-3-7-6-12-10-2-1-8(13)5-9(7)10/h1-2,5-6,12-13H,3-4,11H2

>  <InChIKey>
QZAYGJVTTNCVMB-UHFFFAOYSA-N

>  <SMILES>
c1cc2c(cc1O)c(c[nH]2)CCN

$$$$
3ADV_SRO_A_3
 OpenBabel06201615513D
Coordinates from PDB:3ADV:A:3 Model:1 without hydrogens
 25 26  0  0  0  0  0  0  0  0999 V2000
   10.2920   65.1090    9.4820 O   0  0  0  0  0  0  0  0  0  0  0  0
    9.2710   64.5560   10.1960 C   0  0  0  0  0  0  0  0  0  0  0  0
    8.0230   65.2350   10.3010 C   0  0  0  0  0  0  0  0  0  0  0  0
    6.9600   64.6730   11.0350 C   0  0  0  0  0  0  0  0  0  0  0  0
    7.1260   63.4170   11.6810 C   0  0  0  0  0  0  0  0  0  0  0  0
    6.2970   62.6260   12.4500 N   0  0  0  0  0  0  0  0  0  0  0  0
    6.9590   61.4890   12.8340 C   0  0  0  0  0  0  0  0  0  0  0  0
    8.2240   61.4840   12.3410 C   0  0  0  0  0  0  0  0  0  0  0  0
    8.3810   62.7300   11.5760 C   0  0  0  0  0  0  0  0  0  0  0  0
    9.4520   63.3120   10.8300 C   0  0  0  0  0  0  0  0  0  0  0  0
    9.2930   60.4100   12.5290 C   0  0  0  0  0  0  0  0  0  0  0  0
    8.6740   59.0120   12.7020 C   0  0  0  0  0  0  0  0  0  0  0  0
    8.4580   58.3810   11.3940 N   0  0  0  0  0  0  0  0  0  0  0  0
   11.1123   64.6613    9.4138 H   0  0  0  0  0  0  0  0  0  0  0  0
    7.8965   66.1471    9.8350 H   0  0  0  0  0  0  0  0  0  0  0  0
    6.0600   65.1732   11.1040 H   0  0  0  0  0  0  0  0  0  0  0  0
    5.3673   62.8459   12.6877 H   0  0  0  0  0  0  0  0  0  0  0  0
    6.5524   60.7407   13.4169 H   0  0  0  0  0  0  0  0  0  0  0  0
   10.3568   62.8211   10.7561 H   0  0  0  0  0  0  0  0  0  0  0  0
    9.8695   60.6437   13.3996 H   0  0  0  0  0  0  0  0  0  0  0  0
    9.9077   60.3956   11.6533 H   0  0  0  0  0  0  0  0  0  0  0  0
    7.7360   59.1023   13.2088 H   0  0  0  0  0  0  0  0  0  0  0  0
    9.3444   58.4045   13.2733 H   0  0  0  0  0  0  0  0  0  0  0  0
    7.8196   58.9534   10.8416 H   0  0  0  0  0  0  0  0  0  0  0  0
    8.0549   57.4534   11.5264 H   0  0  0  0  0  0  0  0  0  0  0  0
  1  2  1  0  0  0  0
  1 14  1  0  0  0  0
  2 10  2  0  0  0  0
  2  3  1  0  0  0  0
  3  4  2  0  0  0  0
  3 15  1  0  0  0  0
  4  5  1  0  0  0  0
  4 16  1  0  0  0  0
  5  6  1  0  0  0  0
  5  9  2  0  0  0  0
  6  7  1  0  0  0  0
  6 17  1  0  0  0  0
  7  8  2  0  0  0  0
  7 18  1  0  0  0  0
  8 11  1  0  0  0  0
  8  9  1  0  0  0  0
  9 10  1  0  0  0  0
 10 19  1  0  0  0  0
 11 12  1  0  0  0  0
 11 20  1  0  0  0  0
 11 21  1  0  0  0  0
 12 13  1  0  0  0  0
 12 22  1  0  0  0  0
 12 23  1  0  0  0  0
 13 24  1  0  0  0  0
 13 25  1  0  0  0  0
M  END
>  <InstanceId>
3ADV_SRO_A_3

>  <ChemCompId>
SRO

>  <PdbId>
3ADV

>  <ChainId>
A

>  <ResidueNumber>
3

>  <InsertionCode>


>  <Model>
1

>  <AltIds>


>  <MissingHeavyAtoms>
0

>  <ObservedFormula>
C10 N2 O

>  <Name>
SEROTONIN

>  <SystematicName>
3-(2-aminoethyl)-1H-indol-5-ol

>  <Synonyms>
3-(2-AMINOETHYL)-1H-INDOL-5-OL

>  <Type>
NON-POLYMER

>  <Formula>
C10 H12 N2 O

>  <MolecularWeight>
176.215

>  <ModifiedDate>
2011-06-04

>  <Parent>


>  <OneLetterCode>


>  <SubcomponentList>


>  <AmbiguousFlag>


>  <InChI>
InChI=1S/C10H12N2O/c11-4-3-7-6-12-10-2-1-8(13)5-9(7)10/h1-2,5-6,12-13H,3-4,11H2

>  <InChIKey>
QZAYGJVTTNCVMB-UHFFFAOYSA-N

>  <SMILES>
c1cc2c(cc1O)c(c[nH]2)CCN

$$$$
3ADV_SRO_B_4
 OpenBabel06201615513D
Coordinates from PDB:3ADV:B:4 Model:1 without hydrogens
 25 26  0  0  0  0  0  0  0  0999 V2000
   40.4470   34.9260   43.4210 O   0  0  0  0  0  0  0  0  0  0  0  0
   39.8160   36.1150   43.2380 C   0  0  0  0  0  0  0  0  0  0  0  0
   40.3580   37.3010   43.8070 C   0  0  0  0  0  0  0  0  0  0  0  0
   39.7150   38.5370   43.6270 C   0  0  0  0  0  0  0  0  0  0  0  0
   38.5140   38.6100   42.8700 C   0  0  0  0  0  0  0  0  0  0  0  0
   37.6710   39.6450   42.5240 N   0  0  0  0  0  0  0  0  0  0  0  0
   36.6290   39.1700   41.7680 C   0  0  0  0  0  0  0  0  0  0  0  0
   36.7440   37.8390   41.5910 C   0  0  0  0  0  0  0  0  0  0  0  0
   37.9660   37.4180   42.2950 C   0  0  0  0  0  0  0  0  0  0  0  0
   38.6270   36.1670   42.4850 C   0  0  0  0  0  0  0  0  0  0  0  0
   35.7940   36.9530   40.8150 C   0  0  0  0  0  0  0  0  0  0  0  0
   34.8890   36.1750   41.7780 C   0  0  0  0  0  0  0  0  0  0  0  0
   35.3800   34.7940   41.9070 N   0  0  0  0  0  0  0  0  0  0  0  0
   40.0910   34.1442   43.0468 H   0  0  0  0  0  0  0  0  0  0  0  0
   41.2304   37.2529   44.3563 H   0  0  0  0  0  0  0  0  0  0  0  0
   40.1146   39.3921   44.0444 H   0  0  0  0  0  0  0  0  0  0  0  0
   37.7981   40.5867   42.7816 H   0  0  0  0  0  0  0  0  0  0  0  0
   35.8648   39.7504   41.3884 H   0  0  0  0  0  0  0  0  0  0  0  0
   38.2357   35.3056   42.0729 H   0  0  0  0  0  0  0  0  0  0  0  0
   36.3582   36.2620   40.2242 H   0  0  0  0  0  0  0  0  0  0  0  0
   35.1858   37.5641   40.1813 H   0  0  0  0  0  0  0  0  0  0  0  0
   33.8892   36.1637   41.3969 H   0  0  0  0  0  0  0  0  0  0  0  0
   34.9002   36.6480   42.7377 H   0  0  0  0  0  0  0  0  0  0  0  0
   35.3695   34.3426   40.9924 H   0  0  0  0  0  0  0  0  0  0  0  0
   34.7777   34.2775   42.5480 H   0  0  0  0  0  0  0  0  0  0  0  0
  1  2  1  0  0  0  0
  1 14  1  0  0  0  0
  2 10  2  0  0  0  0
  2  3  1  0  0  0  0
  3  4  2  0  0  0  0
  3 15  1  0  0  0  0
  4  5  1  0  0  0  0
  4 16  1  0  0  0  0
  5  6  1  0  0  0  0
  5  9  2  0  0  0  0
  6  7  1  0  0  0  0
  6 17  1  0  0  0  0
  7  8  2  0  0  0  0
  7 18  1  0  0  0  0
  8 11  1  0  0  0  0
  8  9  1  0  0  0  0
  9 10  1  0  0  0  0
 10 19  1  0  0  0  0
 11 12  1  0  0  0  0
 11 20  1  0  0  0  0
 11 21  1  0  0  0  0
 12 13  1  0  0  0  0
 12 22  1  0  0  0  0
 12 23  1  0  0  0  0
 13 24  1  0  0  0  0
 13 25  1  0  0  0  0
M  END
>  <InstanceId>
3ADV_SRO_B_4

>  <ChemCompId>
SRO

>  <PdbId>
3ADV

>  <ChainId>
B

>  <ResidueNumber>
4

>  <InsertionCode>


>  <Model>
1

>  <AltIds>


>  <MissingHeavyAtoms>
0

>  <ObservedFormula>
C10 N2 O

>  <Name>
SEROTONIN

>  <SystematicName>
3-(2-aminoethyl)-1H-indol-5-ol

>  <Synonyms>
3-(2-AMINOETHYL)-1H-INDOL-5-OL

>  <Type>
NON-POLYMER

>  <Formula>
C10 H12 N2 O

>  <MolecularWeight>
176.215

>  <ModifiedDate>
2011-06-04

>  <Parent>


>  <OneLetterCode>


>  <SubcomponentList>


>  <AmbiguousFlag>


>  <InChI>
InChI=1S/C10H12N2O/c11-4-3-7-6-12-10-2-1-8(13)5-9(7)10/h1-2,5-6,12-13H,3-4,11H2

>  <InChIKey>
QZAYGJVTTNCVMB-UHFFFAOYSA-N

>  <SMILES>
c1cc2c(cc1O)c(c[nH]2)CCN

$$$$
3BRN_SRO_A_158
 OpenBabel06201615513D
Coordinates from PDB:3BRN:A:158 Model:1 without hydrogens
 25 26  0  0  0  0  0  0  0  0999 V2000
   -8.1260   31.7850  -10.8480 O   0  0  0  0  0  0  0  0  0  0  0  0
   -8.0610   33.1320  -10.5860 C   0  0  0  0  0  0  0  0  0  0  0  0
   -7.0470   33.5720   -9.7390 C   0  0  0  0  0  0  0  0  0  0  0  0
   -6.8510   34.9390   -9.5270 C   0  0  0  0  0  0  0  0  0  0  0  0
   -7.7470   35.8060  -10.1340 C   0  0  0  0  0  0  0  0  0  0  0  0
   -7.9200   37.1520  -10.1210 N   0  0  0  0  0  0  0  0  0  0  0  0
   -8.9580   37.4780  -10.9270 C   0  0  0  0  0  0  0  0  0  0  0  0
   -9.4980   36.3040  -11.4540 C   0  0  0  0  0  0  0  0  0  0  0  0
   -8.7390   35.2600  -10.9310 C   0  0  0  0  0  0  0  0  0  0  0  0
   -8.8800   33.9750  -11.1400 C   0  0  0  0  0  0  0  0  0  0  0  0
  -10.6950   36.2090  -12.3680 C   0  0  0  0  0  0  0  0  0  0  0  0
  -11.8650   35.5100  -11.6480 C   0  0  0  0  0  0  0  0  0  0  0  0
  -12.9430   35.2870  -12.6170 N   0  0  0  0  0  0  0  0  0  0  0  0
   -8.7938   31.4493  -11.4131 H   0  0  0  0  0  0  0  0  0  0  0  0
   -6.4381   32.8859   -9.2662 H   0  0  0  0  0  0  0  0  0  0  0  0
   -6.0739   35.2880   -8.9445 H   0  0  0  0  0  0  0  0  0  0  0  0
   -7.3761   37.7911   -9.6063 H   0  0  0  0  0  0  0  0  0  0  0  0
   -9.2937   38.4347  -11.1194 H   0  0  0  0  0  0  0  0  0  0  0  0
   -9.6422   33.6316  -11.7452 H   0  0  0  0  0  0  0  0  0  0  0  0
  -10.4301   35.6466  -13.2389 H   0  0  0  0  0  0  0  0  0  0  0  0
  -10.9986   37.1964  -12.6470 H   0  0  0  0  0  0  0  0  0  0  0  0
  -12.2193   36.1291  -10.8505 H   0  0  0  0  0  0  0  0  0  0  0  0
  -11.5389   34.5754  -11.2418 H   0  0  0  0  0  0  0  0  0  0  0  0
  -13.2475   36.1825  -12.9989 H   0  0  0  0  0  0  0  0  0  0  0  0
  -13.7283   34.8305  -12.1529 H   0  0  0  0  0  0  0  0  0  0  0  0
  1  2  1  0  0  0  0
  1 14  1  0  0  0  0
  2 10  2  0  0  0  0
  2  3  1  0  0  0  0
  3  4  2  0  0  0  0
  3 15  1  0  0  0  0
  4  5  1  0  0  0  0
  4 16  1  0  0  0  0
  5  6  1  0  0  0  0
  5  9  2  0  0  0  0
  6  7  1  0  0  0  0
  6 17  1  0  0  0  0
  7  8  2  0  0  0  0
  7 18  1  0  0  0  0
  8 11  1  0  0  0  0
  8  9  1  0  0  0  0
  9 10  1  0  0  0  0
 10 19  1  0  0  0  0
 11 12  1  0  0  0  0
 11 20  1  0  0  0  0
 11 21  1  0  0  0  0
 12 13  1  0  0  0  0
 12 22  1  0  0  0  0
 12 23  1  0  0  0  0
 13 24  1  0  0  0  0
 13 25  1  0  0  0  0
M  END
>  <InstanceId>
3BRN_SRO_A_158

>  <ChemCompId>
SRO

>  <PdbId>
3BRN

>  <ChainId>
A

>  <ResidueNumber>
158

>  <InsertionCode>


>  <Model>
1

>  <AltIds>


>  <MissingHeavyAtoms>
0

>  <ObservedFormula>
C10 N2 O

>  <Name>
SEROTONIN

>  <SystematicName>
3-(2-aminoethyl)-1H-indol-5-ol

>  <Synonyms>
3-(2-AMINOETHYL)-1H-INDOL-5-OL

>  <Type>
NON-POLYMER

>  <Formula>
C10 H12 N2 O

>  <MolecularWeight>
176.215

>  <ModifiedDate>
2011-06-04

>  <Parent>


>  <OneLetterCode>


>  <SubcomponentList>


>  <AmbiguousFlag>


>  <InChI>
InChI=1S/C10H12N2O/c11-4-3-7-6-12-10-2-1-8(13)5-9(7)10/h1-2,5-6,12-13H,3-4,11H2

>  <InChIKey>
QZAYGJVTTNCVMB-UHFFFAOYSA-N

>  <SMILES>
c1cc2c(cc1O)c(c[nH]2)CCN

$$$$
3BRN_SRO_B_158
 OpenBabel06201615513D
Coordinates from PDB:3BRN:B:158 Model:1 without hydrogens
 25 26  0  0  0  0  0  0  0  0999 V2000
    8.4180   21.1240    6.6450 O   0  0  0  0  0  0  0  0  0  0  0  0
    8.1190   19.8000    6.7640 C   0  0  0  0  0  0  0  0  0  0  0  0
    6.9500   19.4290    7.4270 C   0  0  0  0  0  0  0  0  0  0  0  0
    6.6140   18.0790    7.5400 C   0  0  0  0  0  0  0  0  0  0  0  0
    7.5210   17.1630    7.0200 C   0  0  0  0  0  0  0  0  0  0  0  0
    7.5630   15.8090    6.9550 N   0  0  0  0  0  0  0  0  0  0  0  0
    8.7210   15.4310    6.3600 C   0  0  0  0  0  0  0  0  0  0  0  0
    9.4430   16.5600    5.9930 C   0  0  0  0  0  0  0  0  0  0  0  0
    8.6910   17.6430    6.4520 C   0  0  0  0  0  0  0  0  0  0  0  0
    8.9400   18.9040    6.2980 C   0  0  0  0  0  0  0  0  0  0  0  0
   10.7050   16.5740    5.1580 C   0  0  0  0  0  0  0  0  0  0  0  0
   11.8930   17.0490    5.9710 C   0  0  0  0  0  0  0  0  0  0  0  0
   13.0150   17.1720    5.0670 N   0  0  0  0  0  0  0  0  0  0  0  0
    9.1999   21.3898    6.2023 H   0  0  0  0  0  0  0  0  0  0  0  0
    6.3345   20.1509    7.8333 H   0  0  0  0  0  0  0  0  0  0  0  0
    5.7351   17.7757    7.9878 H   0  0  0  0  0  0  0  0  0  0  0  0
    6.8650   15.1989    7.2865 H   0  0  0  0  0  0  0  0  0  0  0  0
    9.0200   14.4557    6.2038 H   0  0  0  0  0  0  0  0  0  0  0  0
    9.7952   19.2008    5.8024 H   0  0  0  0  0  0  0  0  0  0  0  0
   10.5659   17.2318    4.3257 H   0  0  0  0  0  0  0  0  0  0  0  0
   10.9006   15.5773    4.8215 H   0  0  0  0  0  0  0  0  0  0  0  0
   12.1182   16.3385    6.7387 H   0  0  0  0  0  0  0  0  0  0  0  0
   11.6798   17.9878    6.4381 H   0  0  0  0  0  0  0  0  0  0  0  0
   13.2022   16.2683    4.6325 H   0  0  0  0  0  0  0  0  0  0  0  0
   13.8383   17.4766    5.5864 H   0  0  0  0  0  0  0  0  0  0  0  0
  1  2  1  0  0  0  0
  1 14  1  0  0  0  0
  2 10  2  0  0  0  0
  2  3  1  0  0  0  0
  3  4  2  0  0  0  0
  3 15  1  0  0  0  0
  4  5  1  0  0  0  0
  4 16  1  0  0  0  0
  5  6  1  0  0  0  0
  5  9  2  0  0  0  0
  6  7  1  0  0  0  0
  6 17  1  0  0  0  0
  7  8  2  0  0  0  0
  7 18  1  0  0  0  0
  8 11  1  0  0  0  0
  8  9  1  0  0  0  0
  9 10  1  0  0  0  0
 10 19  1  0  0  0  0
 11 12  1  0  0  0  0
 11 20  1  0  0  0  0
 11 21  1  0  0  0  0
 12 13  1  0  0  0  0
 12 22  1  0  0  0  0
 12 23  1  0  0  0  0
 13 24  1  0  0  0  0
 13 25  1  0  0  0  0
M  END
>  <InstanceId>
3BRN_SRO_B_158

>  <ChemCompId>
SRO

>  <PdbId>
3BRN

>  <ChainId>
B

>  <ResidueNumber>
158

>  <InsertionCode>


>  <Model>
1

>  <AltIds>


>  <MissingHeavyAtoms>
0

>  <ObservedFormula>
C10 N2 O

>  <Name>
SEROTONIN

>  <SystematicName>
3-(2-aminoethyl)-1H-indol-5-ol

>  <Synonyms>
3-(2-AMINOETHYL)-1H-INDOL-5-OL

>  <Type>
NON-POLYMER

>  <Formula>
C10 H12 N2 O

>  <MolecularWeight>
176.215

>  <ModifiedDate>
2011-06-04

>  <Parent>


>  <OneLetterCode>


>  <SubcomponentList>


>  <AmbiguousFlag>


>  <InChI>
InChI=1S/C10H12N2O/c11-4-3-7-6-12-10-2-1-8(13)5-9(7)10/h1-2,5-6,12-13H,3-4,11H2

>  <InChIKey>
QZAYGJVTTNCVMB-UHFFFAOYSA-N

>  <SMILES>
c1cc2c(cc1O)c(c[nH]2)CCN

$$$$
3NK1_SRO_X_433
 OpenBabel06201615513D
Coordinates from PDB:3NK1:X:433 Model:1 without hydrogens
 25 26  0  0  0  0  0  0  0  0999 V2000
  124.7440   19.0820   67.0050 O   0  0  0  0  0  0  0  0  0  0  0  0
  123.6390   18.3000   66.9560 C   0  0  0  0  0  0  0  0  0  0  0  0
  123.7720   16.9330   66.7460 C   0  0  0  0  0  0  0  0  0  0  0  0
  122.6740   16.0820   66.6740 C   0  0  0  0  0  0  0  0  0  0  0  0
  121.4060   16.6000   66.8200 C   0  0  0  0  0  0  0  0  0  0  0  0
  120.1660   16.0740   66.8170 N   0  0  0  0  0  0  0  0  0  0  0  0
  119.1970   17.0090   67.0180 C   0  0  0  0  0  0  0  0  0  0  0  0
  119.8350   18.2140   67.1590 C   0  0  0  0  0  0  0  0  0  0  0  0
  121.2880   18.0420   67.0460 C   0  0  0  0  0  0  0  0  0  0  0  0
  122.3870   18.8720   67.1100 C   0  0  0  0  0  0  0  0  0  0  0  0
  119.1230   19.4920   67.3810 C   0  0  0  0  0  0  0  0  0  0  0  0
  118.5390   20.1160   66.3650 C   0  0  0  0  0  0  0  0  0  0  0  0
  117.8950   21.2550   66.5470 N   0  0  0  0  0  0  0  0  0  0  0  0
  124.6593   20.0044   67.1464 H   0  0  0  0  0  0  0  0  0  0  0  0
  124.7183   16.5352   66.6397 H   0  0  0  0  0  0  0  0  0  0  0  0
  122.8082   15.0716   66.5126 H   0  0  0  0  0  0  0  0  0  0  0  0
  119.9803   15.1164   66.6838 H   0  0  0  0  0  0  0  0  0  0  0  0
  118.1792   16.8427   67.0567 H   0  0  0  0  0  0  0  0  0  0  0  0
  122.2803   19.8863   67.2675 H   0  0  0  0  0  0  0  0  0  0  0  0
  119.8367   20.1747   67.7926 H   0  0  0  0  0  0  0  0  0  0  0  0
  118.2975   19.2072   67.9994 H   0  0  0  0  0  0  0  0  0  0  0  0
  117.8308   19.4284   65.9520 H   0  0  0  0  0  0  0  0  0  0  0  0
  119.3706   20.4095   65.7590 H   0  0  0  0  0  0  0  0  0  0  0  0
  117.0689   21.0904   67.1223 H   0  0  0  0  0  0  0  0  0  0  0  0
  117.6102   21.6327   65.6433 H   0  0  0  0  0  0  0  0  0  0  0  0
  1  2  1  0  0  0  0
  1 14  1  0  0  0  0
  2 10  2  0  0  0  0
  2  3  1  0  0  0  0
  3  4  2  0  0  0  0
  3 15  1  0  0  0  0
  4  5  1  0  0  0  0
  4 16  1  0  0  0  0
  5  6  1  0  0  0  0
  5  9  2  0  0  0  0
  6  7  1  0  0  0  0
  6 17  1  0  0  0  0
  7  8  2  0  0  0  0
  7 18  1  0  0  0  0
  8 11  1  0  0  0  0
  8  9  1  0  0  0  0
  9 10  1  0  0  0  0
 10 19  1  0  0  0  0
 11 12  1  0  0  0  0
 11 20  1  0  0  0  0
 11 21  1  0  0  0  0
 12 13  1  0  0  0  0
 12 22  1  0  0  0  0
 12 23  1  0  0  0  0
 13 24  1  0  0  0  0
 13 25  1  0  0  0  0
M  END
>  <InstanceId>
3NK1_SRO_X_433

>  <ChemCompId>
SRO

>  <PdbId>
3NK1

>  <ChainId>
X

>  <ResidueNumber>
433

>  <InsertionCode>


>  <Model>
1

>  <AltIds>


>  <MissingHeavyAtoms>
0

>  <ObservedFormula>
C10 N2 O

>  <Name>
SEROTONIN

>  <SystematicName>
3-(2-aminoethyl)-1H-indol-5-ol

>  <Synonyms>
3-(2-AMINOETHYL)-1H-INDOL-5-OL

>  <Type>
NON-POLYMER

>  <Formula>
C10 H12 N2 O

>  <MolecularWeight>
176.215

>  <ModifiedDate>
2011-06-04

>  <Parent>


>  <OneLetterCode>


>  <SubcomponentList>


>  <AmbiguousFlag>


>  <InChI>
InChI=1S/C10H12N2O/c11-4-3-7-6-12-10-2-1-8(13)5-9(7)10/h1-2,5-6,12-13H,3-4,11H2

>  <InChIKey>
QZAYGJVTTNCVMB-UHFFFAOYSA-N

>  <SMILES>
c1cc2c(cc1O)c(c[nH]2)CCN

$$$$
3Q6K_SRO_A_383
 OpenBabel06201615513D
Coordinates from PDB:3Q6K:A:383 Model:1 without hydrogens
 25 26  0  0  0  0  0  0  0  0999 V2000
   38.6400   12.6350  -27.9670 O   0  0  0  0  0  0  0  0  0  0  0  0
   38.1740   13.3240  -26.8940 C   0  0  0  0  0  0  0  0  0  0  0  0
   37.0700   14.1810  -27.0860 C   0  0  0  0  0  0  0  0  0  0  0  0
   36.5820   14.9050  -25.9910 C   0  0  0  0  0  0  0  0  0  0  0  0
   37.2280   14.7180  -24.7550 C   0  0  0  0  0  0  0  0  0  0  0  0
   37.0460   15.2160  -23.4990 N   0  0  0  0  0  0  0  0  0  0  0  0
   37.9730   14.6990  -22.6410 C   0  0  0  0  0  0  0  0  0  0  0  0
   38.7860   13.8310  -23.3540 C   0  0  0  0  0  0  0  0  0  0  0  0
   38.3160   13.8390  -24.6830 C   0  0  0  0  0  0  0  0  0  0  0  0
   38.7520   13.1750  -25.7280 C   0  0  0  0  0  0  0  0  0  0  0  0
   39.9250   13.0510  -22.7470 C   0  0  0  0  0  0  0  0  0  0  0  0
   41.2510   13.5550  -23.2970 C   0  0  0  0  0  0  0  0  0  0  0  0
   42.0970   12.4390  -23.6520 N   0  0  0  0  0  0  0  0  0  0  0  0
   39.3719   12.0579  -27.8713 H   0  0  0  0  0  0  0  0  0  0  0  0
   36.6305   14.2726  -28.0152 H   0  0  0  0  0  0  0  0  0  0  0  0
   35.7815   15.5492  -26.0867 H   0  0  0  0  0  0  0  0  0  0  0  0
   36.3442   15.8585  -23.2463 H   0  0  0  0  0  0  0  0  0  0  0  0
   38.0547   14.9165  -21.6355 H   0  0  0  0  0  0  0  0  0  0  0  0
   39.5538   12.5326  -25.6305 H   0  0  0  0  0  0  0  0  0  0  0  0
   39.8126   12.0144  -22.9873 H   0  0  0  0  0  0  0  0  0  0  0  0
   39.9130   13.1802  -21.6849 H   0  0  0  0  0  0  0  0  0  0  0  0
   41.7406   14.1477  -22.5527 H   0  0  0  0  0  0  0  0  0  0  0  0
   41.0664   14.1463  -24.1695 H   0  0  0  0  0  0  0  0  0  0  0  0
   42.2765   11.8714  -22.8237 H   0  0  0  0  0  0  0  0  0  0  0  0
   42.9808   12.7871  -24.0237 H   0  0  0  0  0  0  0  0  0  0  0  0
  1  2  1  0  0  0  0
  1 14  1  0  0  0  0
  2 10  2  0  0  0  0
  2  3  1  0  0  0  0
  3  4  2  0  0  0  0
  3 15  1  0  0  0  0
  4  5  1  0  0  0  0
  4 16  1  0  0  0  0
  5  6  1  0  0  0  0
  5  9  2  0  0  0  0
  6  7  1  0  0  0  0
  6 17  1  0  0  0  0
  7  8  2  0  0  0  0
  7 18  1  0  0  0  0
  8 11  1  0  0  0  0
  8  9  1  0  0  0  0
  9 10  1  0  0  0  0
 10 19  1  0  0  0  0
 11 12  1  0  0  0  0
 11 20  1  0  0  0  0
 11 21  1  0  0  0  0
 12 13  1  0  0  0  0
 12 22  1  0  0  0  0
 12 23  1  0  0  0  0
 13 24  1  0  0  0  0
 13 25  1  0  0  0  0
M  END
>  <InstanceId>
3Q6K_SRO_A_383

>  <ChemCompId>
SRO

>  <PdbId>
3Q6K

>  <ChainId>
A

>  <ResidueNumber>
383

>  <InsertionCode>


>  <Model>
1

>  <AltIds>


>  <MissingHeavyAtoms>
0

>  <ObservedFormula>
C10 N2 O

>  <Name>
SEROTONIN

>  <SystematicName>
3-(2-aminoethyl)-1H-indol-5-ol

>  <Synonyms>
3-(2-AMINOETHYL)-1H-INDOL-5-OL

>  <Type>
NON-POLYMER

>  <Formula>
C10 H12 N2 O

>  <MolecularWeight>
176.215

>  <ModifiedDate>
2011-06-04

>  <Parent>


>  <OneLetterCode>


>  <SubcomponentList>


>  <AmbiguousFlag>


>  <InChI>
InChI=1S/C10H12N2O/c11-4-3-7-6-12-10-2-1-8(13)5-9(7)10/h1-2,5-6,12-13H,3-4,11H2

>  <InChIKey>
QZAYGJVTTNCVMB-UHFFFAOYSA-N

>  <SMILES>
c1cc2c(cc1O)c(c[nH]2)CCN

$$$$
3Q6K_SRO_B_383
 OpenBabel06201615513D
Coordinates from PDB:3Q6K:B:383 Model:1 without hydrogens
 25 26  0  0  0  0  0  0  0  0999 V2000
   38.0450  -27.2860  -11.3390 O   0  0  0  0  0  0  0  0  0  0  0  0
   37.5130  -26.1880  -11.9580 C   0  0  0  0  0  0  0  0  0  0  0  0
   36.3490  -26.3240  -12.7420 C   0  0  0  0  0  0  0  0  0  0  0  0
   35.8190  -25.1970  -13.3790 C   0  0  0  0  0  0  0  0  0  0  0  0
   36.4790  -23.9710  -13.1980 C   0  0  0  0  0  0  0  0  0  0  0  0
   36.2760  -22.6910  -13.6260 N   0  0  0  0  0  0  0  0  0  0  0  0
   37.2550  -21.8780  -13.1270 C   0  0  0  0  0  0  0  0  0  0  0  0
   38.1180  -22.6370  -12.3550 C   0  0  0  0  0  0  0  0  0  0  0  0
   37.6250  -23.9520  -12.4010 C   0  0  0  0  0  0  0  0  0  0  0  0
   38.0970  -25.0280  -11.8160 C   0  0  0  0  0  0  0  0  0  0  0  0
   39.3250  -22.1030  -11.6200 C   0  0  0  0  0  0  0  0  0  0  0  0
   40.5640  -22.9510  -11.9020 C   0  0  0  0  0  0  0  0  0  0  0  0
   41.3030  -23.2140  -10.6900 N   0  0  0  0  0  0  0  0  0  0  0  0
   38.8184  -27.2007  -10.8169 H   0  0  0  0  0  0  0  0  0  0  0  0
   35.8934  -27.2443  -12.8447 H   0  0  0  0  0  0  0  0  0  0  0  0
   34.9707  -25.2645  -13.9628 H   0  0  0  0  0  0  0  0  0  0  0  0
   35.5366  -22.3977  -14.2061 H   0  0  0  0  0  0  0  0  0  0  0  0
   37.3374  -20.8636  -13.2979 H   0  0  0  0  0  0  0  0  0  0  0  0
   38.9454  -24.9563  -11.2329 H   0  0  0  0  0  0  0  0  0  0  0  0
   39.1264  -22.1142  -10.5686 H   0  0  0  0  0  0  0  0  0  0  0  0
   39.5133  -21.1054  -11.9581 H   0  0  0  0  0  0  0  0  0  0  0  0
   41.1957  -22.4284  -12.5896 H   0  0  0  0  0  0  0  0  0  0  0  0
   40.2480  -23.8857  -12.3160 H   0  0  0  0  0  0  0  0  0  0  0  0
   41.6120  -22.3317  -10.2820 H   0  0  0  0  0  0  0  0  0  0  0  0
   42.1154  -23.7918  -10.9057 H   0  0  0  0  0  0  0  0  0  0  0  0
  1  2  1  0  0  0  0
  1 14  1  0  0  0  0
  2 10  2  0  0  0  0
  2  3  1  0  0  0  0
  3  4  2  0  0  0  0
  3 15  1  0  0  0  0
  4  5  1  0  0  0  0
  4 16  1  0  0  0  0
  5  6  1  0  0  0  0
  5  9  2  0  0  0  0
  6  7  1  0  0  0  0
  6 17  1  0  0  0  0
  7  8  2  0  0  0  0
  7 18  1  0  0  0  0
  8 11  1  0  0  0  0
  8  9  1  0  0  0  0
  9 10  1  0  0  0  0
 10 19  1  0  0  0  0
 11 12  1  0  0  0  0
 11 20  1  0  0  0  0
 11 21  1  0  0  0  0
 12 13  1  0  0  0  0
 12 22  1  0  0  0  0
 12 23  1  0  0  0  0
 13 24  1  0  0  0  0
 13 25  1  0  0  0  0
M  END
>  <InstanceId>
3Q6K_SRO_B_383

>  <ChemCompId>
SRO

>  <PdbId>
3Q6K

>  <ChainId>
B

>  <ResidueNumber>
383

>  <InsertionCode>


>  <Model>
1

>  <AltIds>


>  <MissingHeavyAtoms>
0

>  <ObservedFormula>
C10 N2 O

>  <Name>
SEROTONIN

>  <SystematicName>
3-(2-aminoethyl)-1H-indol-5-ol

>  <Synonyms>
3-(2-AMINOETHYL)-1H-INDOL-5-OL

>  <Type>
NON-POLYMER

>  <Formula>
C10 H12 N2 O

>  <MolecularWeight>
176.215

>  <ModifiedDate>
2011-06-04

>  <Parent>


>  <OneLetterCode>


>  <SubcomponentList>


>  <AmbiguousFlag>


>  <InChI>
InChI=1S/C10H12N2O/c11-4-3-7-6-12-10-2-1-8(13)5-9(7)10/h1-2,5-6,12-13H,3-4,11H2

>  <InChIKey>
QZAYGJVTTNCVMB-UHFFFAOYSA-N

>  <SMILES>
c1cc2c(cc1O)c(c[nH]2)CCN

$$$$
4DTW_SRO_B_502
 OpenBabel06201615513D
Coordinates from PDB:4DTW:B:502 Model:1 without hydrogens
 25 26  0  0  0  0  0  0  0  0999 V2000
   20.2280    5.8760   17.8450 O   0  0  0  0  0  0  0  0  0  0  0  0
   19.6100    4.6950   18.1830 C   0  0  0  0  0  0  0  0  0  0  0  0
   18.5510    4.6390   19.1550 C   0  0  0  0  0  0  0  0  0  0  0  0
   17.9190    3.4220   19.4900 C   0  0  0  0  0  0  0  0  0  0  0  0
   18.3760    2.2560   18.8660 C   0  0  0  0  0  0  0  0  0  0  0  0
   18.0330    0.9580   18.9380 N   0  0  0  0  0  0  0  0  0  0  0  0
   18.8100    0.1780   18.0860 C   0  0  0  0  0  0  0  0  0  0  0  0
   19.7540    0.9250   17.3780 C   0  0  0  0  0  0  0  0  0  0  0  0
   19.5090    2.3150   17.8650 C   0  0  0  0  0  0  0  0  0  0  0  0
   20.0910    3.5470   17.5550 C   0  0  0  0  0  0  0  0  0  0  0  0
   20.7650    0.3580   16.3620 C   0  0  0  0  0  0  0  0  0  0  0  0
   20.4440    0.9800   15.0130 C   0  0  0  0  0  0  0  0  0  0  0  0
   20.9750    0.6880   13.6970 N   0  0  0  0  0  0  0  0  0  0  0  0
   20.9150    5.8796   17.2079 H   0  0  0  0  0  0  0  0  0  0  0  0
   18.2461    5.5092   19.6184 H   0  0  0  0  0  0  0  0  0  0  0  0
   17.1455    3.3932   20.1726 H   0  0  0  0  0  0  0  0  0  0  0  0
   17.3221    0.6039   19.5198 H   0  0  0  0  0  0  0  0  0  0  0  0
   18.7001   -0.8434   17.9880 H   0  0  0  0  0  0  0  0  0  0  0  0
   20.8634    3.6060   16.8731 H   0  0  0  0  0  0  0  0  0  0  0  0
   20.6711   -0.7064   16.3065 H   0  0  0  0  0  0  0  0  0  0  0  0
   21.7680    0.5866   16.6565 H   0  0  0  0  0  0  0  0  0  0  0  0
   20.6501    2.0208   15.1512 H   0  0  0  0  0  0  0  0  0  0  0  0
   19.4833    0.5287   14.8777 H   0  0  0  0  0  0  0  0  0  0  0  0
   21.9244    1.0538   13.6246 H   0  0  0  0  0  0  0  0  0  0  0  0
   20.3868    1.1262   12.9881 H   0  0  0  0  0  0  0  0  0  0  0  0
  1  2  1  0  0  0  0
  1 14  1  0  0  0  0
  2 10  2  0  0  0  0
  2  3  1  0  0  0  0
  3  4  2  0  0  0  0
  3 15  1  0  0  0  0
  4  5  1  0  0  0  0
  4 16  1  0  0  0  0
  5  6  1  0  0  0  0
  5  9  2  0  0  0  0
  6  7  1  0  0  0  0
  6 17  1  0  0  0  0
  7  8  2  0  0  0  0
  7 18  1  0  0  0  0
  8 11  1  0  0  0  0
  8  9  1  0  0  0  0
  9 10  1  0  0  0  0
 10 19  1  0  0  0  0
 11 12  1  0  0  0  0
 11 20  1  0  0  0  0
 11 21  1  0  0  0  0
 12 13  1  0  0  0  0
 12 22  1  0  0  0  0
 12 23  1  0  0  0  0
 13 24  1  0  0  0  0
 13 25  1  0  0  0  0
M  END
>  <InstanceId>
4DTW_SRO_B_502

>  <ChemCompId>
SRO

>  <PdbId>
4DTW

>  <ChainId>
B

>  <ResidueNumber>
502

>  <InsertionCode>


>  <Model>
1

>  <AltIds>


>  <MissingHeavyAtoms>
0

>  <ObservedFormula>
C10 N2 O

>  <Name>
SEROTONIN

>  <SystematicName>
3-(2-aminoethyl)-1H-indol-5-ol

>  <Synonyms>
3-(2-AMINOETHYL)-1H-INDOL-5-OL

>  <Type>
NON-POLYMER

>  <Formula>
C10 H12 N2 O

>  <MolecularWeight>
176.215

>  <ModifiedDate>
2011-06-04

>  <Parent>


>  <OneLetterCode>


>  <SubcomponentList>


>  <AmbiguousFlag>


>  <InChI>
InChI=1S/C10H12N2O/c11-4-3-7-6-12-10-2-1-8(13)5-9(7)10/h1-2,5-6,12-13H,3-4,11H2

>  <InChIKey>
QZAYGJVTTNCVMB-UHFFFAOYSA-N

>  <SMILES>
c1cc2c(cc1O)c(c[nH]2)CCN

$$$$
4DTW_SRO_A_501
 OpenBabel06201615513D
Coordinates from PDB:4DTW:A:501 Model:1 without hydrogens
 25 26  0  0  0  0  0  0  0  0999 V2000
    0.8730  -54.9590   19.7350 O   0  0  0  0  0  0  0  0  0  0  0  0
    1.4320  -53.7110   19.9760 C   0  0  0  0  0  0  0  0  0  0  0  0
    2.5040  -53.5590   20.8990 C   0  0  0  0  0  0  0  0  0  0  0  0
    3.1110  -52.3070   21.1700 C   0  0  0  0  0  0  0  0  0  0  0  0
    2.6100  -51.1780   20.5090 C   0  0  0  0  0  0  0  0  0  0  0  0
    2.9270  -49.8670   20.5050 N   0  0  0  0  0  0  0  0  0  0  0  0
    2.1070  -49.1950   19.6230 C   0  0  0  0  0  0  0  0  0  0  0  0
    1.1870  -50.0040   18.9310 C   0  0  0  0  0  0  0  0  0  0  0  0
    1.4730  -51.3510   19.5110 C   0  0  0  0  0  0  0  0  0  0  0  0
    0.9160  -52.6080   19.3030 C   0  0  0  0  0  0  0  0  0  0  0  0
    0.1450  -49.4840   17.9220 C   0  0  0  0  0  0  0  0  0  0  0  0
   -0.3470  -50.3660   16.7600 C   0  0  0  0  0  0  0  0  0  0  0  0
   -0.1370  -49.9860   15.3450 N   0  0  0  0  0  0  0  0  0  0  0  0
    0.1673  -55.0463   19.1248 H   0  0  0  0  0  0  0  0  0  0  0  0
    2.8544  -54.3953   21.3919 H   0  0  0  0  0  0  0  0  0  0  0  0
    3.8975  -52.2296   21.8336 H   0  0  0  0  0  0  0  0  0  0  0  0
    3.6356  -49.4530   21.0487 H   0  0  0  0  0  0  0  0  0  0  0  0
    2.1639  -48.1744   19.4811 H   0  0  0  0  0  0  0  0  0  0  0  0
    0.1233  -52.7223   18.6522 H   0  0  0  0  0  0  0  0  0  0  0  0
    0.5637  -48.6044   17.4793 H   0  0  0  0  0  0  0  0  0  0  0  0
   -0.7329  -49.3803   18.5249 H   0  0  0  0  0  0  0  0  0  0  0  0
   -1.4042  -50.4693   16.8889 H   0  0  0  0  0  0  0  0  0  0  0  0
    0.2747  -51.2316   16.8554 H   0  0  0  0  0  0  0  0  0  0  0  0
   -0.6897  -49.1561   15.1302 H   0  0  0  0  0  0  0  0  0  0  0  0
   -0.4276  -50.7540   14.7400 H   0  0  0  0  0  0  0  0  0  0  0  0
  1  2  1  0  0  0  0
  1 14  1  0  0  0  0
  2 10  2  0  0  0  0
  2  3  1  0  0  0  0
  3  4  2  0  0  0  0
  3 15  1  0  0  0  0
  4  5  1  0  0  0  0
  4 16  1  0  0  0  0
  5  6  1  0  0  0  0
  5  9  2  0  0  0  0
  6  7  1  0  0  0  0
  6 17  1  0  0  0  0
  7  8  2  0  0  0  0
  7 18  1  0  0  0  0
  8 11  1  0  0  0  0
  8  9  1  0  0  0  0
  9 10  1  0  0  0  0
 10 19  1  0  0  0  0
 11 12  1  0  0  0  0
 11 20  1  0  0  0  0
 11 21  1  0  0  0  0
 12 13  1  0  0  0  0
 12 22  1  0  0  0  0
 12 23  1  0  0  0  0
 13 24  1  0  0  0  0
 13 25  1  0  0  0  0
M  END
>  <InstanceId>
4DTW_SRO_A_501

>  <ChemCompId>
SRO

>  <PdbId>
4DTW

>  <ChainId>
A

>  <ResidueNumber>
501

>  <InsertionCode>


>  <Model>
1

>  <AltIds>


>  <MissingHeavyAtoms>
0

>  <ObservedFormula>
C10 N2 O

>  <Name>
SEROTONIN

>  <SystematicName>
3-(2-aminoethyl)-1H-indol-5-ol

>  <Synonyms>
3-(2-AMINOETHYL)-1H-INDOL-5-OL

>  <Type>
NON-POLYMER

>  <Formula>
C10 H12 N2 O

>  <MolecularWeight>
176.215

>  <ModifiedDate>
2011-06-04

>  <Parent>


>  <OneLetterCode>


>  <SubcomponentList>


>  <AmbiguousFlag>


>  <InChI>
InChI=1S/C10H12N2O/c11-4-3-7-6-12-10-2-1-8(13)5-9(7)10/h1-2,5-6,12-13H,3-4,11H2

>  <InChIKey>
QZAYGJVTTNCVMB-UHFFFAOYSA-N

>  <SMILES>
c1cc2c(cc1O)c(c[nH]2)CCN

$$$$
4DUE_SRO_A_501
 OpenBabel06201615513D
Coordinates from PDB:4DUE:A:501 Model:1 without hydrogens
 25 26  0  0  0  0  0  0  0  0999 V2000
   -3.9610    0.9170    8.7660 O   0  0  0  0  0  0  0  0  0  0  0  0
   -3.9670   -0.2260    9.5140 C   0  0  0  0  0  0  0  0  0  0  0  0
   -3.5220   -1.4030    8.8850 C   0  0  0  0  0  0  0  0  0  0  0  0
   -3.5190   -2.6130    9.6410 C   0  0  0  0  0  0  0  0  0  0  0  0
   -3.9150   -2.6080   10.9920 C   0  0  0  0  0  0  0  0  0  0  0  0
   -3.9980   -3.5370   11.9720 N   0  0  0  0  0  0  0  0  0  0  0  0
   -4.4100   -3.0070   13.1260 C   0  0  0  0  0  0  0  0  0  0  0  0
   -4.6730   -1.6430   13.0240 C   0  0  0  0  0  0  0  0  0  0  0  0
   -4.3220   -1.3480   11.6110 C   0  0  0  0  0  0  0  0  0  0  0  0
   -4.3540   -0.1370   10.8770 C   0  0  0  0  0  0  0  0  0  0  0  0
   -5.1960   -0.5720   13.9990 C   0  0  0  0  0  0  0  0  0  0  0  0
   -5.4410   -1.1510   15.4050 C   0  0  0  0  0  0  0  0  0  0  0  0
   -4.1880   -0.9810   16.1790 N   0  0  0  0  0  0  0  0  0  0  0  0
   -4.2488    1.7251    9.1430 H   0  0  0  0  0  0  0  0  0  0  0  0
   -3.2060   -1.3915    7.9026 H   0  0  0  0  0  0  0  0  0  0  0  0
   -3.2251   -3.4962    9.1953 H   0  0  0  0  0  0  0  0  0  0  0  0
   -3.7807   -4.4893   11.8490 H   0  0  0  0  0  0  0  0  0  0  0  0
   -4.5213   -3.5483   13.9976 H   0  0  0  0  0  0  0  0  0  0  0  0
   -4.6413    0.7561   11.3070 H   0  0  0  0  0  0  0  0  0  0  0  0
   -6.1165   -0.1790   13.6208 H   0  0  0  0  0  0  0  0  0  0  0  0
   -4.4549    0.1956   14.0794 H   0  0  0  0  0  0  0  0  0  0  0  0
   -5.6894   -2.1894   15.3347 H   0  0  0  0  0  0  0  0  0  0  0  0
   -6.2531   -0.6462   15.8852 H   0  0  0  0  0  0  0  0  0  0  0  0
   -3.4272   -1.4685   15.7057 H   0  0  0  0  0  0  0  0  0  0  0  0
   -4.3108   -1.3691   17.1142 H   0  0  0  0  0  0  0  0  0  0  0  0
  1  2  1  0  0  0  0
  1 14  1  0  0  0  0
  2 10  2  0  0  0  0
  2  3  1  0  0  0  0
  3  4  2  0  0  0  0
  3 15  1  0  0  0  0
  4  5  1  0  0  0  0
  4 16  1  0  0  0  0
  5  6  1  0  0  0  0
  5  9  2  0  0  0  0
  6  7  1  0  0  0  0
  6 17  1  0  0  0  0
  7  8  2  0  0  0  0
  7 18  1  0  0  0  0
  8 11  1  0  0  0  0
  8  9  1  0  0  0  0
  9 10  1  0  0  0  0
 10 19  1  0  0  0  0
 11 12  1  0  0  0  0
 11 20  1  0  0  0  0
 11 21  1  0  0  0  0
 12 13  1  0  0  0  0
 12 22  1  0  0  0  0
 12 23  1  0  0  0  0
 13 24  1  0  0  0  0
 13 25  1  0  0  0  0
M  END
>  <InstanceId>
4DUE_SRO_A_501

>  <ChemCompId>
SRO

>  <PdbId>
4DUE

>  <ChainId>
A

>  <ResidueNumber>
501

>  <InsertionCode>


>  <Model>
1

>  <AltIds>


>  <MissingHeavyAtoms>
0

>  <ObservedFormula>
C10 N2 O

>  <Name>
SEROTONIN

>  <SystematicName>
3-(2-aminoethyl)-1H-indol-5-ol

>  <Synonyms>
3-(2-AMINOETHYL)-1H-INDOL-5-OL

>  <Type>
NON-POLYMER

>  <Formula>
C10 H12 N2 O

>  <MolecularWeight>
176.215

>  <ModifiedDate>
2011-06-04

>  <Parent>


>  <OneLetterCode>


>  <SubcomponentList>


>  <AmbiguousFlag>


>  <InChI>
InChI=1S/C10H12N2O/c11-4-3-7-6-12-10-2-1-8(13)5-9(7)10/h1-2,5-6,12-13H,3-4,11H2

>  <InChIKey>
QZAYGJVTTNCVMB-UHFFFAOYSA-N

>  <SMILES>
c1cc2c(cc1O)c(c[nH]2)CCN

$$$$
4DUE_SRO_B_501
 OpenBabel06201615513D
Coordinates from PDB:4DUE:B:501 Model:1 without hydrogens
 25 26  0  0  0  0  0  0  0  0999 V2000
  -25.4050   47.7150   10.4840 O   0  0  0  0  0  0  0  0  0  0  0  0
  -25.4150   48.8270   11.2410 C   0  0  0  0  0  0  0  0  0  0  0  0
  -25.7540   50.0170   10.5910 C   0  0  0  0  0  0  0  0  0  0  0  0
  -25.7660   51.2160   11.3020 C   0  0  0  0  0  0  0  0  0  0  0  0
  -25.4760   51.2520   12.6570 C   0  0  0  0  0  0  0  0  0  0  0  0
  -25.3740   52.2360   13.5700 N   0  0  0  0  0  0  0  0  0  0  0  0
  -25.0470   51.7480   14.8150 C   0  0  0  0  0  0  0  0  0  0  0  0
  -24.8430   50.3640   14.7170 C   0  0  0  0  0  0  0  0  0  0  0  0
  -25.1390   50.0090   13.3160 C   0  0  0  0  0  0  0  0  0  0  0  0
  -25.0790   48.7580   12.6080 C   0  0  0  0  0  0  0  0  0  0  0  0
  -24.4200   49.2890   15.6760 C   0  0  0  0  0  0  0  0  0  0  0  0
  -24.0020   49.6640   17.0850 C   0  0  0  0  0  0  0  0  0  0  0  0
  -25.1680   49.3280   17.8920 N   0  0  0  0  0  0  0  0  0  0  0  0
  -25.1849   46.8890   10.8677 H   0  0  0  0  0  0  0  0  0  0  0  0
  -25.9947   50.0080    9.5875 H   0  0  0  0  0  0  0  0  0  0  0  0
  -25.9952   52.0938   10.8101 H   0  0  0  0  0  0  0  0  0  0  0  0
  -25.5161   53.1897   13.3713 H   0  0  0  0  0  0  0  0  0  0  0  0
  -24.9655   52.3081   15.6779 H   0  0  0  0  0  0  0  0  0  0  0  0
  -24.8095   47.8742   13.0677 H   0  0  0  0  0  0  0  0  0  0  0  0
  -23.5892   48.7836   15.2295 H   0  0  0  0  0  0  0  0  0  0  0  0
  -25.3137   48.7194   15.8234 H   0  0  0  0  0  0  0  0  0  0  0  0
  -23.7798   50.7085   17.1519 H   0  0  0  0  0  0  0  0  0  0  0  0
  -23.1163   49.1554   17.4041 H   0  0  0  0  0  0  0  0  0  0  0  0
  -25.9800   49.8387   17.5453 H   0  0  0  0  0  0  0  0  0  0  0  0
  -24.9944   49.5848   18.8638 H   0  0  0  0  0  0  0  0  0  0  0  0
  1  2  1  0  0  0  0
  1 14  1  0  0  0  0
  2 10  2  0  0  0  0
  2  3  1  0  0  0  0
  3  4  2  0  0  0  0
  3 15  1  0  0  0  0
  4  5  1  0  0  0  0
  4 16  1  0  0  0  0
  5  6  1  0  0  0  0
  5  9  2  0  0  0  0
  6  7  1  0  0  0  0
  6 17  1  0  0  0  0
  7  8  2  0  0  0  0
  7 18  1  0  0  0  0
  8 11  1  0  0  0  0
  8  9  1  0  0  0  0
  9 10  1  0  0  0  0
 10 19  1  0  0  0  0
 11 12  1  0  0  0  0
 11 20  1  0  0  0  0
 11 21  1  0  0  0  0
 12 13  1  0  0  0  0
 12 22  1  0  0  0  0
 12 23  1  0  0  0  0
 13 24  1  0  0  0  0
 13 25  1  0  0  0  0
M  END
>  <InstanceId>
4DUE_SRO_B_501

>  <ChemCompId>
SRO

>  <PdbId>
4DUE

>  <ChainId>
B

>  <ResidueNumber>
501

>  <InsertionCode>


>  <Model>
1

>  <AltIds>


>  <MissingHeavyAtoms>
0

>  <ObservedFormula>
C10 N2 O

>  <Name>
SEROTONIN

>  <SystematicName>
3-(2-aminoethyl)-1H-indol-5-ol

>  <Synonyms>
3-(2-AMINOETHYL)-1H-INDOL-5-OL

>  <Type>
NON-POLYMER

>  <Formula>
C10 H12 N2 O

>  <MolecularWeight>
176.215

>  <ModifiedDate>
2011-06-04

>  <Parent>


>  <OneLetterCode>


>  <SubcomponentList>


>  <AmbiguousFlag>


>  <InChI>
InChI=1S/C10H12N2O/c11-4-3-7-6-12-10-2-1-8(13)5-9(7)10/h1-2,5-6,12-13H,3-4,11H2

>  <InChIKey>
QZAYGJVTTNCVMB-UHFFFAOYSA-N

>  <SMILES>
c1cc2c(cc1O)c(c[nH]2)CCN

$$$$
4DUF_SRO_A_501
 OpenBabel06201615513D
Coordinates from PDB:4DUF:A:501 Model:1 without hydrogens
 25 26  0  0  0  0  0  0  0  0999 V2000
   27.7380   -1.0320   41.1470 O   0  0  0  0  0  0  0  0  0  0  0  0
   27.4560   -0.0160   40.2720 C   0  0  0  0  0  0  0  0  0  0  0  0
   28.2060    1.1980   40.2130 C   0  0  0  0  0  0  0  0  0  0  0  0
   27.8710    2.2640   39.3360 C   0  0  0  0  0  0  0  0  0  0  0  0
   26.7580    2.1210   38.4550 C   0  0  0  0  0  0  0  0  0  0  0  0
   26.1140    2.8380   37.5110 N   0  0  0  0  0  0  0  0  0  0  0  0
   25.0310    2.2490   36.9850 C   0  0  0  0  0  0  0  0  0  0  0  0
   24.9230    1.0190   37.6110 C   0  0  0  0  0  0  0  0  0  0  0  0
   26.0150    0.8610   38.5780 C   0  0  0  0  0  0  0  0  0  0  0  0
   26.3660   -0.2010   39.4250 C   0  0  0  0  0  0  0  0  0  0  0  0
   23.9190    0.0020   37.3710 C   0  0  0  0  0  0  0  0  0  0  0  0
   23.5120    0.7890   36.1170 C   0  0  0  0  0  0  0  0  0  0  0  0
   23.8690   -0.0080   34.9330 N   0  0  0  0  0  0  0  0  0  0  0  0
   27.2152   -1.8096   41.1463 H   0  0  0  0  0  0  0  0  0  0  0  0
   29.0244    1.3051   40.8325 H   0  0  0  0  0  0  0  0  0  0  0  0
   28.4272    3.1333   39.3361 H   0  0  0  0  0  0  0  0  0  0  0  0
   26.4180    3.7307   37.2284 H   0  0  0  0  0  0  0  0  0  0  0  0
   24.4049    2.6341   36.2606 H   0  0  0  0  0  0  0  0  0  0  0  0
   25.8361   -1.0865   39.4206 H   0  0  0  0  0  0  0  0  0  0  0  0
   23.1604   -0.0616   38.1230 H   0  0  0  0  0  0  0  0  0  0  0  0
   24.1719   -1.0367   37.3245 H   0  0  0  0  0  0  0  0  0  0  0  0
   24.0310    1.7244   36.0930 H   0  0  0  0  0  0  0  0  0  0  0  0
   22.4592    0.9800   36.1281 H   0  0  0  0  0  0  0  0  0  0  0  0
   24.8737   -0.1842   34.9321 H   0  0  0  0  0  0  0  0  0  0  0  0
   23.6128    0.5038   34.0887 H   0  0  0  0  0  0  0  0  0  0  0  0
  1  2  1  0  0  0  0
  1 14  1  0  0  0  0
  2 10  2  0  0  0  0
  2  3  1  0  0  0  0
  3  4  2  0  0  0  0
  3 15  1  0  0  0  0
  4  5  1  0  0  0  0
  4 16  1  0  0  0  0
  5  6  1  0  0  0  0
  5  9  2  0  0  0  0
  6  7  1  0  0  0  0
  6 17  1  0  0  0  0
  7  8  2  0  0  0  0
  7 18  1  0  0  0  0
  8 11  1  0  0  0  0
  8  9  1  0  0  0  0
  9 10  1  0  0  0  0
 10 19  1  0  0  0  0
 11 12  1  0  0  0  0
 11 20  1  0  0  0  0
 11 21  1  0  0  0  0
 12 13  1  0  0  0  0
 12 22  1  0  0  0  0
 12 23  1  0  0  0  0
 13 24  1  0  0  0  0
 13 25  1  0  0  0  0
M  END
>  <InstanceId>
4DUF_SRO_A_501

>  <ChemCompId>
SRO

>  <PdbId>
4DUF

>  <ChainId>
A

>  <ResidueNumber>
501

>  <InsertionCode>


>  <Model>
1

>  <AltIds>


>  <MissingHeavyAtoms>
0

>  <ObservedFormula>
C10 N2 O

>  <Name>
SEROTONIN

>  <SystematicName>
3-(2-aminoethyl)-1H-indol-5-ol

>  <Synonyms>
3-(2-AMINOETHYL)-1H-INDOL-5-OL

>  <Type>
NON-POLYMER

>  <Formula>
C10 H12 N2 O

>  <MolecularWeight>
176.215

>  <ModifiedDate>
2011-06-04

>  <Parent>


>  <OneLetterCode>


>  <SubcomponentList>


>  <AmbiguousFlag>


>  <InChI>
InChI=1S/C10H12N2O/c11-4-3-7-6-12-10-2-1-8(13)5-9(7)10/h1-2,5-6,12-13H,3-4,11H2

>  <InChIKey>
QZAYGJVTTNCVMB-UHFFFAOYSA-N

>  <SMILES>
c1cc2c(cc1O)c(c[nH]2)CCN

$$$$
4DUF_SRO_B_501
 OpenBabel06201615513D
Coordinates from PDB:4DUF:B:501 Model:1 without hydrogens
 25 26  0  0  0  0  0  0  0  0999 V2000
  -12.6120   -1.4240   82.6120 O   0  0  0  0  0  0  0  0  0  0  0  0
  -12.9770   -0.4080   81.7890 C   0  0  0  0  0  0  0  0  0  0  0  0
  -12.1420    0.7110   81.6720 C   0  0  0  0  0  0  0  0  0  0  0  0
  -12.4790    1.8300   80.8960 C   0  0  0  0  0  0  0  0  0  0  0  0
  -13.6570    1.8450   80.1530 C   0  0  0  0  0  0  0  0  0  0  0  0
  -14.2830    2.6710   79.2640 N   0  0  0  0  0  0  0  0  0  0  0  0
  -15.4820    2.2630   78.8560 C   0  0  0  0  0  0  0  0  0  0  0  0
  -15.6370    1.0250   79.4840 C   0  0  0  0  0  0  0  0  0  0  0  0
  -14.4890    0.6450   80.3010 C   0  0  0  0  0  0  0  0  0  0  0  0
  -14.1710   -0.4770   81.0810 C   0  0  0  0  0  0  0  0  0  0  0  0
  -16.7240    0.1930   79.2550 C   0  0  0  0  0  0  0  0  0  0  0  0
  -16.9430    1.0250   78.0000 C   0  0  0  0  0  0  0  0  0  0  0  0
  -16.7750    0.2020   76.7750 N   0  0  0  0  0  0  0  0  0  0  0  0
  -13.1622   -2.1775   82.6985 H   0  0  0  0  0  0  0  0  0  0  0  0
  -11.2422    0.7121   82.1774 H   0  0  0  0  0  0  0  0  0  0  0  0
  -11.8498    2.6477   80.8755 H   0  0  0  0  0  0  0  0  0  0  0  0
  -13.8758    3.5095   78.9472 H   0  0  0  0  0  0  0  0  0  0  0  0
  -16.1407    2.7463   78.2255 H   0  0  0  0  0  0  0  0  0  0  0  0
  -14.7867   -1.3039   81.1263 H   0  0  0  0  0  0  0  0  0  0  0  0
  -17.5052    0.2563   79.9834 H   0  0  0  0  0  0  0  0  0  0  0  0
  -16.6436   -0.8738   79.2365 H   0  0  0  0  0  0  0  0  0  0  0  0
  -16.2328    1.8252   77.9832 H   0  0  0  0  0  0  0  0  0  0  0  0
  -17.9419    1.4080   78.0170 H   0  0  0  0  0  0  0  0  0  0  0  0
  -15.8263   -0.1713   76.7436 H   0  0  0  0  0  0  0  0  0  0  0  0
  -16.9401    0.7806   75.9514 H   0  0  0  0  0  0  0  0  0  0  0  0
  1  2  1  0  0  0  0
  1 14  1  0  0  0  0
  2 10  2  0  0  0  0
  2  3  1  0  0  0  0
  3  4  2  0  0  0  0
  3 15  1  0  0  0  0
  4  5  1  0  0  0  0
  4 16  1  0  0  0  0
  5  6  1  0  0  0  0
  5  9  2  0  0  0  0
  6  7  1  0  0  0  0
  6 17  1  0  0  0  0
  7  8  2  0  0  0  0
  7 18  1  0  0  0  0
  8 11  1  0  0  0  0
  8  9  1  0  0  0  0
  9 10  1  0  0  0  0
 10 19  1  0  0  0  0
 11 12  1  0  0  0  0
 11 20  1  0  0  0  0
 11 21  1  0  0  0  0
 12 13  1  0  0  0  0
 12 22  1  0  0  0  0
 12 23  1  0  0  0  0
 13 24  1  0  0  0  0
 13 25  1  0  0  0  0
M  END
>  <InstanceId>
4DUF_SRO_B_501

>  <ChemCompId>
SRO

>  <PdbId>
4DUF

>  <ChainId>
B

>  <ResidueNumber>
501

>  <InsertionCode>


>  <Model>
1

>  <AltIds>


>  <MissingHeavyAtoms>
0

>  <ObservedFormula>
C10 N2 O

>  <Name>
SEROTONIN

>  <SystematicName>
3-(2-aminoethyl)-1H-indol-5-ol

>  <Synonyms>
3-(2-AMINOETHYL)-1H-INDOL-5-OL

>  <Type>
NON-POLYMER

>  <Formula>
C10 H12 N2 O

>  <MolecularWeight>
176.215

>  <ModifiedDate>
2011-06-04

>  <Parent>


>  <OneLetterCode>


>  <SubcomponentList>


>  <AmbiguousFlag>


>  <InChI>
InChI=1S/C10H12N2O/c11-4-3-7-6-12-10-2-1-8(13)5-9(7)10/h1-2,5-6,12-13H,3-4,11H2

>  <InChIKey>
QZAYGJVTTNCVMB-UHFFFAOYSA-N

>  <SMILES>
c1cc2c(cc1O)c(c[nH]2)CCN

$$$$
4DUF_SRO_C_501
 OpenBabel06201615513D
Coordinates from PDB:4DUF:C:501 Model:1 without hydrogens
 25 26  0  0  0  0  0  0  0  0999 V2000
   21.7120   29.3600   74.1550 O   0  0  0  0  0  0  0  0  0  0  0  0
   22.2280   28.1170   74.4370 C   0  0  0  0  0  0  0  0  0  0  0  0
   22.0890   27.0370   73.5400 C   0  0  0  0  0  0  0  0  0  0  0  0
   22.6160   25.7630   73.8390 C   0  0  0  0  0  0  0  0  0  0  0  0
   23.2990   25.5090   75.0460 C   0  0  0  0  0  0  0  0  0  0  0  0
   23.9150   24.4650   75.6700 N   0  0  0  0  0  0  0  0  0  0  0  0
   24.4100   24.8640   76.8960 C   0  0  0  0  0  0  0  0  0  0  0  0
   24.1240   26.2000   77.1300 C   0  0  0  0  0  0  0  0  0  0  0  0
   23.4140   26.6690   75.9520 C   0  0  0  0  0  0  0  0  0  0  0  0
   22.8940   27.9340   75.6560 C   0  0  0  0  0  0  0  0  0  0  0  0
   24.3520   27.1610   78.2680 C   0  0  0  0  0  0  0  0  0  0  0  0
   25.3280   26.5430   79.1870 C   0  0  0  0  0  0  0  0  0  0  0  0
   26.6820   26.4260   78.6400 N   0  0  0  0  0  0  0  0  0  0  0  0
   21.8178   30.0611   74.7675 H   0  0  0  0  0  0  0  0  0  0  0  0
   21.5919   27.1818   72.6473 H   0  0  0  0  0  0  0  0  0  0  0  0
   22.4986   24.9975   73.1569 H   0  0  0  0  0  0  0  0  0  0  0  0
   23.9955   23.5564   75.2995 H   0  0  0  0  0  0  0  0  0  0  0  0
   24.9229   24.2511   77.5489 H   0  0  0  0  0  0  0  0  0  0  0  0
   22.9989   28.7157   76.3216 H   0  0  0  0  0  0  0  0  0  0  0  0
   23.4313   27.3424   78.7821 H   0  0  0  0  0  0  0  0  0  0  0  0
   24.7216   28.0958   77.9014 H   0  0  0  0  0  0  0  0  0  0  0  0
   24.9806   25.5616   79.4340 H   0  0  0  0  0  0  0  0  0  0  0  0
   25.3966   27.1870   80.0388 H   0  0  0  0  0  0  0  0  0  0  0  0
   26.6666   25.8178   77.8213 H   0  0  0  0  0  0  0  0  0  0  0  0
   27.3011   26.0291   79.3468 H   0  0  0  0  0  0  0  0  0  0  0  0
  1  2  1  0  0  0  0
  1 14  1  0  0  0  0
  2 10  2  0  0  0  0
  2  3  1  0  0  0  0
  3  4  2  0  0  0  0
  3 15  1  0  0  0  0
  4  5  1  0  0  0  0
  4 16  1  0  0  0  0
  5  6  1  0  0  0  0
  5  9  2  0  0  0  0
  6  7  1  0  0  0  0
  6 17  1  0  0  0  0
  7  8  2  0  0  0  0
  7 18  1  0  0  0  0
  8 11  1  0  0  0  0
  8  9  1  0  0  0  0
  9 10  1  0  0  0  0
 10 19  1  0  0  0  0
 11 12  1  0  0  0  0
 11 20  1  0  0  0  0
 11 21  1  0  0  0  0
 12 13  1  0  0  0  0
 12 22  1  0  0  0  0
 12 23  1  0  0  0  0
 13 24  1  0  0  0  0
 13 25  1  0  0  0  0
M  END
>  <InstanceId>
4DUF_SRO_C_501

>  <ChemCompId>
SRO

>  <PdbId>
4DUF

>  <ChainId>
C

>  <ResidueNumber>
501

>  <InsertionCode>


>  <Model>
1

>  <AltIds>


>  <MissingHeavyAtoms>
0

>  <ObservedFormula>
C10 N2 O

>  <Name>
SEROTONIN

>  <SystematicName>
3-(2-aminoethyl)-1H-indol-5-ol

>  <Synonyms>
3-(2-AMINOETHYL)-1H-INDOL-5-OL

>  <Type>
NON-POLYMER

>  <Formula>
C10 H12 N2 O

>  <MolecularWeight>
176.215

>  <ModifiedDate>
2011-06-04

>  <Parent>


>  <OneLetterCode>


>  <SubcomponentList>


>  <AmbiguousFlag>


>  <InChI>
InChI=1S/C10H12N2O/c11-4-3-7-6-12-10-2-1-8(13)5-9(7)10/h1-2,5-6,12-13H,3-4,11H2

>  <InChIKey>
QZAYGJVTTNCVMB-UHFFFAOYSA-N

>  <SMILES>
c1cc2c(cc1O)c(c[nH]2)CCN

$$$$
4DUF_SRO_D_501
 OpenBabel06201615513D
Coordinates from PDB:4DUF:D:501 Model:1 without hydrogens
 25 26  0  0  0  0  0  0  0  0999 V2000
  -18.1870   28.4600  116.3810 O   0  0  0  0  0  0  0  0  0  0  0  0
  -17.6350   27.2170  116.5680 C   0  0  0  0  0  0  0  0  0  0  0  0
  -17.6170   26.2410  115.5600 C   0  0  0  0  0  0  0  0  0  0  0  0
  -17.1100   24.9300  115.7090 C   0  0  0  0  0  0  0  0  0  0  0  0
  -16.5620   24.5560  116.9450 C   0  0  0  0  0  0  0  0  0  0  0  0
  -15.9480   23.4550  117.5130 N   0  0  0  0  0  0  0  0  0  0  0  0
  -15.6400   23.6840  118.8180 C   0  0  0  0  0  0  0  0  0  0  0  0
  -16.0320   25.0000  119.1450 C   0  0  0  0  0  0  0  0  0  0  0  0
  -16.6070   25.6180  117.9770 C   0  0  0  0  0  0  0  0  0  0  0  0
  -17.1170   26.9090  117.8240 C   0  0  0  0  0  0  0  0  0  0  0  0
  -15.9770   25.8210  120.3510 C   0  0  0  0  0  0  0  0  0  0  0  0
  -14.9540   24.9970  121.1110 C   0  0  0  0  0  0  0  0  0  0  0  0
  -13.5280   25.4120  120.8310 N   0  0  0  0  0  0  0  0  0  0  0  0
  -18.1800   29.0855  117.0786 H   0  0  0  0  0  0  0  0  0  0  0  0
  -18.0037   26.5003  114.6390 H   0  0  0  0  0  0  0  0  0  0  0  0
  -17.1424   24.2610  114.9238 H   0  0  0  0  0  0  0  0  0  0  0  0
  -15.7585   22.6152  117.0354 H   0  0  0  0  0  0  0  0  0  0  0  0
  -15.1951   23.0098  119.4602 H   0  0  0  0  0  0  0  0  0  0  0  0
  -17.1105   27.5943  118.5956 H   0  0  0  0  0  0  0  0  0  0  0  0
  -16.9194   25.8655  120.8559 H   0  0  0  0  0  0  0  0  0  0  0  0
  -15.7396   26.8546  120.2086 H   0  0  0  0  0  0  0  0  0  0  0  0
  -15.0701   23.9703  120.8331 H   0  0  0  0  0  0  0  0  0  0  0  0
  -15.1315   25.1537  122.1545 H   0  0  0  0  0  0  0  0  0  0  0  0
  -13.3223   25.2758  119.8413 H   0  0  0  0  0  0  0  0  0  0  0  0
  -12.8924   24.8444  121.3916 H   0  0  0  0  0  0  0  0  0  0  0  0
  1  2  1  0  0  0  0
  1 14  1  0  0  0  0
  2 10  2  0  0  0  0
  2  3  1  0  0  0  0
  3  4  2  0  0  0  0
  3 15  1  0  0  0  0
  4  5  1  0  0  0  0
  4 16  1  0  0  0  0
  5  6  1  0  0  0  0
  5  9  2  0  0  0  0
  6  7  1  0  0  0  0
  6 17  1  0  0  0  0
  7  8  2  0  0  0  0
  7 18  1  0  0  0  0
  8 11  1  0  0  0  0
  8  9  1  0  0  0  0
  9 10  1  0  0  0  0
 10 19  1  0  0  0  0
 11 12  1  0  0  0  0
 11 20  1  0  0  0  0
 11 21  1  0  0  0  0
 12 13  1  0  0  0  0
 12 22  1  0  0  0  0
 12 23  1  0  0  0  0
 13 24  1  0  0  0  0
 13 25  1  0  0  0  0
M  END
>  <InstanceId>
4DUF_SRO_D_501

>  <ChemCompId>
SRO

>  <PdbId>
4DUF

>  <ChainId>
D

>  <ResidueNumber>
501

>  <InsertionCode>


>  <Model>
1

>  <AltIds>


>  <MissingHeavyAtoms>
0

>  <ObservedFormula>
C10 N2 O

>  <Name>
SEROTONIN

>  <SystematicName>
3-(2-aminoethyl)-1H-indol-5-ol

>  <Synonyms>
3-(2-AMINOETHYL)-1H-INDOL-5-OL

>  <Type>
NON-POLYMER

>  <Formula>
C10 H12 N2 O

>  <MolecularWeight>
176.215

>  <ModifiedDate>
2011-06-04

>  <Parent>


>  <OneLetterCode>


>  <SubcomponentList>


>  <AmbiguousFlag>


>  <InChI>
InChI=1S/C10H12N2O/c11-4-3-7-6-12-10-2-1-8(13)5-9(7)10/h1-2,5-6,12-13H,3-4,11H2

>  <InChIKey>
QZAYGJVTTNCVMB-UHFFFAOYSA-N

>  <SMILES>
c1cc2c(cc1O)c(c[nH]2)CCN

$$$$
