NPY1_MK299_12302016.pdb.B
  MOE2014           3D

 74 76  0  0  0  0  0  0  0  0999 V2000
  -50.4600  -20.2550   71.1740 N   0  0  0  1  0  0  0  0  0  0  0  0
  -50.9687  -19.4646   70.8044 H   0  0  0  1  0  0  0  0  0  0  0  0
  -50.4571  -20.4863   72.1558 H   0  0  0  1  0  0  0  0  0  0  0  0
  -49.6900  -20.9060   70.2590 C   0  0  0  1  0  0  0  0  0  0  0  0
  -50.2570  -20.8250   69.0000 N   0  0  0  1  0  0  0  0  0  0  0  0
  -49.8842  -21.3783   68.2417 H   0  0  0  1  0  0  0  0  0  0  0  0
  -51.0438  -20.2125   68.8389 H   0  0  0  1  0  0  0  0  0  0  0  0
  -48.6290  -21.7900   70.2920 N   0  0  0  1  0  0  0  0  0  0  0  0
  -47.7070  -22.1200   71.3230 C   0  0  0  1  0  0  0  0  0  0  0  0
  -48.1435  -21.9395   72.3054 H   0  0  0  1  0  0  0  0  0  0  0  0
  -47.3992  -23.1630   71.2482 H   0  0  0  1  0  0  0  0  0  0  0  0
  -46.5220  -21.1840   71.0740 C   0  0  0  1  0  0  0  0  0  0  0  0
  -46.9258  -20.2178   70.7716 H   0  0  0  1  0  0  0  0  0  0  0  0
  -45.9869  -21.0750   72.0173 H   0  0  0  1  0  0  0  0  0  0  0  0
  -45.4860  -21.6160   69.9960 C   0  0  0  1  0  0  0  0  0  0  0  0
  -45.9831  -21.6765   69.0278 H   0  0  0  1  0  0  0  0  0  0  0  0
  -45.0840  -22.5942   70.2597 H   0  0  0  1  0  0  0  0  0  0  0  0
  -44.2930  -20.5720   69.9030 C   0  0  0  1  0  0  0  0  0  0  0  0
  -43.4175  -20.9189   69.3542 H   0  0  0  1  0  0  0  0  0  0  0  0
  -43.9430  -20.2610   71.3950 C   0  0  0  1  0  0  0  0  0  0  0  0
  -43.2680  -21.2970   72.0370 N   0  0  0  1  0  0  0  0  0  0  0  0
  -42.9631  -22.0791   71.4753 H   0  0  0  1  0  0  0  0  0  0  0  0
  -42.9760  -21.3290   73.4430 C   0  0  0  1  0  0  0  0  0  0  0  0
  -42.1220  -21.9707   73.6596 H   0  0  0  1  0  0  0  0  0  0  0  0
  -42.7882  -20.3295   73.8353 H   0  0  0  1  0  0  0  0  0  0  0  0
  -44.2750  -21.9160   74.0000 C   0  0  0  1  0  0  0  0  0  0  0  0
  -44.6710  -23.2570   73.6750 C   0  0  0  1  0  0  0  0  0  0  0  0
  -44.0095  -23.8778   73.0890 H   0  0  0  1  0  0  0  0  0  0  0  0
  -45.9140  -23.7810   74.1090 C   0  0  0  1  0  0  0  0  0  0  0  0
  -46.2001  -24.7938   73.8667 H   0  0  0  1  0  0  0  0  0  0  0  0
  -46.7720  -22.9500   74.8660 C   0  0  0  1  0  0  0  0  0  0  0  0
  -48.0010  -23.3600   75.3380 C   0  0  0  1  0  0  0  0  0  0  0  0
  -48.4837  -22.6994   75.8401 N   0  0  0  1  0  0  0  0  0  0  0  0
  -49.1645  -22.0834   75.4029 H   0  0  0  1  0  0  0  0  0  0  0  0
  -48.5764  -23.6616   74.4454 H   0  0  0  1  0  0  0  0  0  0  0  0
  -47.8678  -24.3468   75.8109 H   0  0  0  1  0  0  0  0  0  0  0  0
  -46.3920  -21.6040   75.1900 C   0  0  0  1  0  0  0  0  0  0  0  0
  -47.0635  -20.9775   75.7583 H   0  0  0  1  0  0  0  0  0  0  0  0
  -45.1510  -21.0990   74.7710 C   0  0  0  1  0  0  0  0  0  0  0  0
  -44.8607  -20.0922   75.0329 H   0  0  0  1  0  0  0  0  0  0  0  0
  -44.2390  -19.1780   71.9410 O   0  0  0  1  0  0  0  0  0  0  0  0
  -44.8310  -19.3810   69.2410 N   0  0  0  1  0  0  0  0  0  0  0  0
  -45.3418  -18.7187   69.8071 H   0  0  0  1  0  0  0  0  0  0  0  0
  -44.6870  -19.1000   67.8890 C   0  0  0  1  0  0  0  0  0  0  0  0
  -44.0790  -19.8190   67.1090 O   0  0  0  1  0  0  0  0  0  0  0  0
  -45.4070  -17.8340   67.4640 C   0  0  0  1  0  0  0  0  0  0  0  0
  -45.5191  -17.1446   68.3008 H   0  0  0  1  0  0  0  0  0  0  0  0
  -46.7920  -18.2790   66.9880 C   0  0  0  1  0  0  0  0  0  0  0  0
  -47.9390  -17.9030   67.6910 C   0  0  0  1  0  0  0  0  0  0  0  0
  -47.8686  -17.2440   68.5437 H   0  0  0  1  0  0  0  0  0  0  0  0
  -49.1880  -18.3970   67.2700 C   0  0  0  1  0  0  0  0  0  0  0  0
  -50.0790  -18.1102   67.8088 H   0  0  0  1  0  0  0  0  0  0  0  0
  -46.9160  -19.1540   65.8530 C   0  0  0  1  0  0  0  0  0  0  0  0
  -46.0285  -19.4383   65.3071 H   0  0  0  1  0  0  0  0  0  0  0  0
  -48.1600  -19.6460   65.4390 C   0  0  0  1  0  0  0  0  0  0  0  0
  -48.2363  -20.3059   64.5875 H   0  0  0  1  0  0  0  0  0  0  0  0
  -49.3010  -19.2650   66.1510 C   0  0  0  1  0  0  0  0  0  0  0  0
  -50.2712  -19.6315   65.8496 H   0  0  0  1  0  0  0  0  0  0  0  0
  -44.6090  -16.9290   66.5050 C   0  0  0  1  0  0  0  0  0  0  0  0
  -43.2450  -16.6910   66.7460 C   0  0  0  1  0  0  0  0  0  0  0  0
  -42.7509  -17.1929   67.5647 H   0  0  0  1  0  0  0  0  0  0  0  0
  -42.5140  -15.8010   65.9270 C   0  0  0  1  0  0  0  0  0  0  0  0
  -41.4684  -15.6253   66.1325 H   0  0  0  1  0  0  0  0  0  0  0  0
  -43.1280  -15.1420   64.8500 C   0  0  0  1  0  0  0  0  0  0  0  0
  -42.5627  -14.4605   64.2316 H   0  0  0  1  0  0  0  0  0  0  0  0
  -44.4780  -15.3790   64.5890 C   0  0  0  1  0  0  0  0  0  0  0  0
  -44.9601  -14.8861   63.7577 H   0  0  0  1  0  0  0  0  0  0  0  0
  -45.2150  -16.2600   65.4070 C   0  0  0  1  0  0  0  0  0  0  0  0
  -46.2603  -16.4297   65.1951 H   0  0  0  1  0  0  0  0  0  0  0  0
  -48.4645  -22.4164   77.1837 C   0  0  0  1  0  0  0  0  0  0  0  0
  -49.2697  -21.4378   77.6570 N   0  0  0  1  0  0  0  0  0  0  0  0
  -49.2410  -21.2526   78.6497 H   0  0  0  1  0  0  0  0  0  0  0  0
  -49.9021  -20.8894   77.0932 H   0  0  0  1  0  0  0  0  0  0  0  0
  -47.7545  -23.0780   77.9372 O   0  0  0  1  0  0  0  0  0  0  0  0
  1  2  1  0  0  0  0
  1  3  1  0  0  0  0
  1  4  1  0  0  0  0
  4  5  1  0  0  0  0
  4  8  2  0  0  0  0
  5  6  1  0  0  0  0
  5  7  1  0  0  0  0
  8  9  1  0  0  0  0
  9 10  1  0  0  0  0
  9 11  1  0  0  0  0
  9 12  1  0  0  0  0
 12 13  1  0  0  0  0
 12 14  1  0  0  0  0
 12 15  1  0  0  0  0
 15 16  1  0  0  0  0
 15 17  1  0  0  0  0
 15 18  1  0  0  0  0
 18 19  1  0  0  0  0
 18 20  1  0  0  0  0
 18 42  1  0  0  0  0
 20 21  1  0  0  0  0
 20 41  2  0  0  0  0
 21 22  1  0  0  0  0
 21 23  1  0  0  0  0
 23 24  1  0  0  0  0
 23 25  1  0  0  0  0
 23 26  1  0  0  0  0
 26 27  1  0  0  0  0
 26 39  2  0  0  0  0
 27 28  1  0  0  0  0
 27 29  2  0  0  0  0
 29 30  1  0  0  0  0
 29 31  1  0  0  0  0
 31 32  1  0  0  0  0
 31 37  2  0  0  0  0
 32 33  1  0  0  0  0
 32 35  1  0  0  0  0
 32 36  1  0  0  0  0
 33 34  1  0  0  0  0
 33 70  1  0  0  0  0
 37 38  1  0  0  0  0
 37 39  1  0  0  0  0
 39 40  1  0  0  0  0
 42 43  1  0  0  0  0
 42 44  1  0  0  0  0
 44 45  2  0  0  0  0
 44 46  1  0  0  0  0
 46 47  1  0  0  0  0
 46 48  1  0  0  0  0
 46 59  1  0  0  0  0
 48 49  2  0  0  0  0
 48 53  1  0  0  0  0
 49 50  1  0  0  0  0
 49 51  1  0  0  0  0
 51 52  1  0  0  0  0
 51 57  2  0  0  0  0
 53 54  1  0  0  0  0
 53 55  2  0  0  0  0
 55 56  1  0  0  0  0
 55 57  1  0  0  0  0
 57 58  1  0  0  0  0
 59 60  1  0  0  0  0
 59 68  2  0  0  0  0
 60 61  1  0  0  0  0
 60 62  2  0  0  0  0
 62 63  1  0  0  0  0
 62 64  1  0  0  0  0
 64 65  1  0  0  0  0
 64 66  2  0  0  0  0
 66 67  1  0  0  0  0
 66 68  1  0  0  0  0
 68 69  1  0  0  0  0
 70 71  1  0  0  0  0
 70 74  2  0  0  0  0
 71 72  1  0  0  0  0
 71 73  1  0  0  0  0
M  END
> <ConfScore>
-0.997184 

> <SampleByParts>
1 5 4 8 9 71 70 74 33 32 31

$$$$
NPY1_MK299_12302016.pdb.B
  MOE2014           3D

 74 76  0  0  0  0  0  0  0  0999 V2000
  -50.4600  -20.2550   71.1740 N   0  0  0  1  0  0  0  0  0  0  0  0
  -50.9687  -19.4646   70.8044 H   0  0  0  1  0  0  0  0  0  0  0  0
  -50.4571  -20.4863   72.1558 H   0  0  0  1  0  0  0  0  0  0  0  0
  -49.6900  -20.9060   70.2590 C   0  0  0  1  0  0  0  0  0  0  0  0
  -50.2570  -20.8250   69.0000 N   0  0  0  1  0  0  0  0  0  0  0  0
  -49.8842  -21.3783   68.2417 H   0  0  0  1  0  0  0  0  0  0  0  0
  -51.0438  -20.2125   68.8389 H   0  0  0  1  0  0  0  0  0  0  0  0
  -48.6290  -21.7900   70.2920 N   0  0  0  1  0  0  0  0  0  0  0  0
  -47.7070  -22.1200   71.3230 C   0  0  0  1  0  0  0  0  0  0  0  0
  -48.1435  -21.9395   72.3054 H   0  0  0  1  0  0  0  0  0  0  0  0
  -47.3992  -23.1630   71.2482 H   0  0  0  1  0  0  0  0  0  0  0  0
  -46.5220  -21.1840   71.0740 C   0  0  0  1  0  0  0  0  0  0  0  0
  -46.9258  -20.2178   70.7716 H   0  0  0  1  0  0  0  0  0  0  0  0
  -45.9869  -21.0750   72.0173 H   0  0  0  1  0  0  0  0  0  0  0  0
  -45.4860  -21.6160   69.9960 C   0  0  0  1  0  0  0  0  0  0  0  0
  -45.9831  -21.6765   69.0278 H   0  0  0  1  0  0  0  0  0  0  0  0
  -45.0840  -22.5942   70.2597 H   0  0  0  1  0  0  0  0  0  0  0  0
  -44.2930  -20.5720   69.9030 C   0  0  0  1  0  0  0  0  0  0  0  0
  -43.4175  -20.9189   69.3542 H   0  0  0  1  0  0  0  0  0  0  0  0
  -43.9430  -20.2610   71.3950 C   0  0  0  1  0  0  0  0  0  0  0  0
  -43.2680  -21.2970   72.0370 N   0  0  0  1  0  0  0  0  0  0  0  0
  -42.9631  -22.0791   71.4753 H   0  0  0  1  0  0  0  0  0  0  0  0
  -42.9760  -21.3290   73.4430 C   0  0  0  1  0  0  0  0  0  0  0  0
  -42.1220  -21.9707   73.6596 H   0  0  0  1  0  0  0  0  0  0  0  0
  -42.7882  -20.3295   73.8353 H   0  0  0  1  0  0  0  0  0  0  0  0
  -44.2750  -21.9160   74.0000 C   0  0  0  1  0  0  0  0  0  0  0  0
  -44.6710  -23.2570   73.6750 C   0  0  0  1  0  0  0  0  0  0  0  0
  -44.0095  -23.8778   73.0890 H   0  0  0  1  0  0  0  0  0  0  0  0
  -45.9140  -23.7810   74.1090 C   0  0  0  1  0  0  0  0  0  0  0  0
  -46.2001  -24.7938   73.8667 H   0  0  0  1  0  0  0  0  0  0  0  0
  -46.7720  -22.9500   74.8660 C   0  0  0  1  0  0  0  0  0  0  0  0
  -48.0010  -23.3600   75.3380 C   0  0  0  1  0  0  0  0  0  0  0  0
  -48.4837  -22.6994   75.8401 N   0  0  0  1  0  0  0  0  0  0  0  0
  -48.7849  -21.8219   75.4238 H   0  0  0  1  0  0  0  0  0  0  0  0
  -48.5764  -23.6616   74.4454 H   0  0  0  1  0  0  0  0  0  0  0  0
  -47.8678  -24.3468   75.8109 H   0  0  0  1  0  0  0  0  0  0  0  0
  -46.3920  -21.6040   75.1900 C   0  0  0  1  0  0  0  0  0  0  0  0
  -47.0635  -20.9775   75.7583 H   0  0  0  1  0  0  0  0  0  0  0  0
  -45.1510  -21.0990   74.7710 C   0  0  0  1  0  0  0  0  0  0  0  0
  -44.8607  -20.0922   75.0329 H   0  0  0  1  0  0  0  0  0  0  0  0
  -44.2390  -19.1780   71.9410 O   0  0  0  1  0  0  0  0  0  0  0  0
  -44.8310  -19.3810   69.2410 N   0  0  0  1  0  0  0  0  0  0  0  0
  -45.3418  -18.7187   69.8071 H   0  0  0  1  0  0  0  0  0  0  0  0
  -44.6870  -19.1000   67.8890 C   0  0  0  1  0  0  0  0  0  0  0  0
  -44.0790  -19.8190   67.1090 O   0  0  0  1  0  0  0  0  0  0  0  0
  -45.4070  -17.8340   67.4640 C   0  0  0  1  0  0  0  0  0  0  0  0
  -45.5191  -17.1446   68.3008 H   0  0  0  1  0  0  0  0  0  0  0  0
  -46.7920  -18.2790   66.9880 C   0  0  0  1  0  0  0  0  0  0  0  0
  -47.9390  -17.9030   67.6910 C   0  0  0  1  0  0  0  0  0  0  0  0
  -47.8686  -17.2440   68.5437 H   0  0  0  1  0  0  0  0  0  0  0  0
  -49.1880  -18.3970   67.2700 C   0  0  0  1  0  0  0  0  0  0  0  0
  -50.0790  -18.1102   67.8088 H   0  0  0  1  0  0  0  0  0  0  0  0
  -46.9160  -19.1540   65.8530 C   0  0  0  1  0  0  0  0  0  0  0  0
  -46.0285  -19.4383   65.3071 H   0  0  0  1  0  0  0  0  0  0  0  0
  -48.1600  -19.6460   65.4390 C   0  0  0  1  0  0  0  0  0  0  0  0
  -48.2363  -20.3059   64.5875 H   0  0  0  1  0  0  0  0  0  0  0  0
  -49.3010  -19.2650   66.1510 C   0  0  0  1  0  0  0  0  0  0  0  0
  -50.2712  -19.6315   65.8496 H   0  0  0  1  0  0  0  0  0  0  0  0
  -44.6090  -16.9290   66.5050 C   0  0  0  1  0  0  0  0  0  0  0  0
  -43.2450  -16.6910   66.7460 C   0  0  0  1  0  0  0  0  0  0  0  0
  -42.7509  -17.1929   67.5647 H   0  0  0  1  0  0  0  0  0  0  0  0
  -42.5140  -15.8010   65.9270 C   0  0  0  1  0  0  0  0  0  0  0  0
  -41.4684  -15.6253   66.1325 H   0  0  0  1  0  0  0  0  0  0  0  0
  -43.1280  -15.1420   64.8500 C   0  0  0  1  0  0  0  0  0  0  0  0
  -42.5627  -14.4605   64.2316 H   0  0  0  1  0  0  0  0  0  0  0  0
  -44.4780  -15.3790   64.5890 C   0  0  0  1  0  0  0  0  0  0  0  0
  -44.9601  -14.8861   63.7577 H   0  0  0  1  0  0  0  0  0  0  0  0
  -45.2150  -16.2600   65.4070 C   0  0  0  1  0  0  0  0  0  0  0  0
  -46.2603  -16.4297   65.1951 H   0  0  0  1  0  0  0  0  0  0  0  0
  -48.9310  -22.7227   77.1382 C   0  0  0  1  0  0  0  0  0  0  0  0
  -49.6205  -21.6592   77.6110 N   0  0  0  1  0  0  0  0  0  0  0  0
  -49.9432  -21.7031   78.5673 H   0  0  0  1  0  0  0  0  0  0  0  0
  -49.8438  -20.8334   77.0756 H   0  0  0  1  0  0  0  0  0  0  0  0
  -48.7377  -23.7173   77.8331 O   0  0  0  1  0  0  0  0  0  0  0  0
  1  2  1  0  0  0  0
  1  3  1  0  0  0  0
  1  4  1  0  0  0  0
  4  5  1  0  0  0  0
  4  8  2  0  0  0  0
  5  6  1  0  0  0  0
  5  7  1  0  0  0  0
  8  9  1  0  0  0  0
  9 10  1  0  0  0  0
  9 11  1  0  0  0  0
  9 12  1  0  0  0  0
 12 13  1  0  0  0  0
 12 14  1  0  0  0  0
 12 15  1  0  0  0  0
 15 16  1  0  0  0  0
 15 17  1  0  0  0  0
 15 18  1  0  0  0  0
 18 19  1  0  0  0  0
 18 20  1  0  0  0  0
 18 42  1  0  0  0  0
 20 21  1  0  0  0  0
 20 41  2  0  0  0  0
 21 22  1  0  0  0  0
 21 23  1  0  0  0  0
 23 24  1  0  0  0  0
 23 25  1  0  0  0  0
 23 26  1  0  0  0  0
 26 27  1  0  0  0  0
 26 39  2  0  0  0  0
 27 28  1  0  0  0  0
 27 29  2  0  0  0  0
 29 30  1  0  0  0  0
 29 31  1  0  0  0  0
 31 32  1  0  0  0  0
 31 37  2  0  0  0  0
 32 33  1  0  0  0  0
 32 35  1  0  0  0  0
 32 36  1  0  0  0  0
 33 34  1  0  0  0  0
 33 70  1  0  0  0  0
 37 38  1  0  0  0  0
 37 39  1  0  0  0  0
 39 40  1  0  0  0  0
 42 43  1  0  0  0  0
 42 44  1  0  0  0  0
 44 45  2  0  0  0  0
 44 46  1  0  0  0  0
 46 47  1  0  0  0  0
 46 48  1  0  0  0  0
 46 59  1  0  0  0  0
 48 49  2  0  0  0  0
 48 53  1  0  0  0  0
 49 50  1  0  0  0  0
 49 51  1  0  0  0  0
 51 52  1  0  0  0  0
 51 57  2  0  0  0  0
 53 54  1  0  0  0  0
 53 55  2  0  0  0  0
 55 56  1  0  0  0  0
 55 57  1  0  0  0  0
 57 58  1  0  0  0  0
 59 60  1  0  0  0  0
 59 68  2  0  0  0  0
 60 61  1  0  0  0  0
 60 62  2  0  0  0  0
 62 63  1  0  0  0  0
 62 64  1  0  0  0  0
 64 65  1  0  0  0  0
 64 66  2  0  0  0  0
 66 67  1  0  0  0  0
 66 68  1  0  0  0  0
 68 69  1  0  0  0  0
 70 71  1  0  0  0  0
 70 74  2  0  0  0  0
 71 72  1  0  0  0  0
 71 73  1  0  0  0  0
M  END
> <ConfScore>
-0.899105 

> <SampleByParts>
1 5 4 8 9 71 70 74 33 32 31

$$$$
NPY1_MK299_12302016.pdb.B
  MOE2014           3D

 74 76  0  0  0  0  0  0  0  0999 V2000
  -50.4600  -20.2550   71.1740 N   0  0  0  1  0  0  0  0  0  0  0  0
  -50.9687  -19.4646   70.8044 H   0  0  0  1  0  0  0  0  0  0  0  0
  -50.4571  -20.4863   72.1558 H   0  0  0  1  0  0  0  0  0  0  0  0
  -49.6900  -20.9060   70.2590 C   0  0  0  1  0  0  0  0  0  0  0  0
  -50.2570  -20.8250   69.0000 N   0  0  0  1  0  0  0  0  0  0  0  0
  -49.8842  -21.3783   68.2417 H   0  0  0  1  0  0  0  0  0  0  0  0
  -51.0438  -20.2125   68.8389 H   0  0  0  1  0  0  0  0  0  0  0  0
  -48.6290  -21.7900   70.2920 N   0  0  0  1  0  0  0  0  0  0  0  0
  -47.7070  -22.1200   71.3230 C   0  0  0  1  0  0  0  0  0  0  0  0
  -48.1435  -21.9395   72.3054 H   0  0  0  1  0  0  0  0  0  0  0  0
  -47.3992  -23.1630   71.2482 H   0  0  0  1  0  0  0  0  0  0  0  0
  -46.5220  -21.1840   71.0740 C   0  0  0  1  0  0  0  0  0  0  0  0
  -46.9258  -20.2178   70.7716 H   0  0  0  1  0  0  0  0  0  0  0  0
  -45.9869  -21.0750   72.0173 H   0  0  0  1  0  0  0  0  0  0  0  0
  -45.4860  -21.6160   69.9960 C   0  0  0  1  0  0  0  0  0  0  0  0
  -45.9831  -21.6765   69.0278 H   0  0  0  1  0  0  0  0  0  0  0  0
  -45.0840  -22.5942   70.2597 H   0  0  0  1  0  0  0  0  0  0  0  0
  -44.2930  -20.5720   69.9030 C   0  0  0  1  0  0  0  0  0  0  0  0
  -43.4175  -20.9189   69.3542 H   0  0  0  1  0  0  0  0  0  0  0  0
  -43.9430  -20.2610   71.3950 C   0  0  0  1  0  0  0  0  0  0  0  0
  -43.2680  -21.2970   72.0370 N   0  0  0  1  0  0  0  0  0  0  0  0
  -42.9631  -22.0791   71.4753 H   0  0  0  1  0  0  0  0  0  0  0  0
  -42.9760  -21.3290   73.4430 C   0  0  0  1  0  0  0  0  0  0  0  0
  -42.1220  -21.9707   73.6596 H   0  0  0  1  0  0  0  0  0  0  0  0
  -42.7882  -20.3295   73.8353 H   0  0  0  1  0  0  0  0  0  0  0  0
  -44.2750  -21.9160   74.0000 C   0  0  0  1  0  0  0  0  0  0  0  0
  -44.6710  -23.2570   73.6750 C   0  0  0  1  0  0  0  0  0  0  0  0
  -44.0095  -23.8778   73.0890 H   0  0  0  1  0  0  0  0  0  0  0  0
  -45.9140  -23.7810   74.1090 C   0  0  0  1  0  0  0  0  0  0  0  0
  -46.2001  -24.7938   73.8667 H   0  0  0  1  0  0  0  0  0  0  0  0
  -46.7720  -22.9500   74.8660 C   0  0  0  1  0  0  0  0  0  0  0  0
  -48.0010  -23.3600   75.3380 C   0  0  0  1  0  0  0  0  0  0  0  0
  -48.4837  -22.6994   75.8401 N   0  0  0  1  0  0  0  0  0  0  0  0
  -48.3768  -22.6053   76.8470 H   0  0  0  1  0  0  0  0  0  0  0  0
  -48.5764  -23.6616   74.4454 H   0  0  0  1  0  0  0  0  0  0  0  0
  -47.8678  -24.3468   75.8109 H   0  0  0  1  0  0  0  0  0  0  0  0
  -46.3920  -21.6040   75.1900 C   0  0  0  1  0  0  0  0  0  0  0  0
  -47.0635  -20.9775   75.7583 H   0  0  0  1  0  0  0  0  0  0  0  0
  -45.1510  -21.0990   74.7710 C   0  0  0  1  0  0  0  0  0  0  0  0
  -44.8607  -20.0922   75.0329 H   0  0  0  1  0  0  0  0  0  0  0  0
  -44.2390  -19.1780   71.9410 O   0  0  0  1  0  0  0  0  0  0  0  0
  -44.8310  -19.3810   69.2410 N   0  0  0  1  0  0  0  0  0  0  0  0
  -45.3418  -18.7187   69.8071 H   0  0  0  1  0  0  0  0  0  0  0  0
  -44.6870  -19.1000   67.8890 C   0  0  0  1  0  0  0  0  0  0  0  0
  -44.0790  -19.8190   67.1090 O   0  0  0  1  0  0  0  0  0  0  0  0
  -45.4070  -17.8340   67.4640 C   0  0  0  1  0  0  0  0  0  0  0  0
  -45.5191  -17.1446   68.3008 H   0  0  0  1  0  0  0  0  0  0  0  0
  -46.7920  -18.2790   66.9880 C   0  0  0  1  0  0  0  0  0  0  0  0
  -47.9390  -17.9030   67.6910 C   0  0  0  1  0  0  0  0  0  0  0  0
  -47.8686  -17.2440   68.5437 H   0  0  0  1  0  0  0  0  0  0  0  0
  -49.1880  -18.3970   67.2700 C   0  0  0  1  0  0  0  0  0  0  0  0
  -50.0790  -18.1102   67.8088 H   0  0  0  1  0  0  0  0  0  0  0  0
  -46.9160  -19.1540   65.8530 C   0  0  0  1  0  0  0  0  0  0  0  0
  -46.0285  -19.4383   65.3071 H   0  0  0  1  0  0  0  0  0  0  0  0
  -48.1600  -19.6460   65.4390 C   0  0  0  1  0  0  0  0  0  0  0  0
  -48.2363  -20.3059   64.5875 H   0  0  0  1  0  0  0  0  0  0  0  0
  -49.3010  -19.2650   66.1510 C   0  0  0  1  0  0  0  0  0  0  0  0
  -50.2712  -19.6315   65.8496 H   0  0  0  1  0  0  0  0  0  0  0  0
  -44.6090  -16.9290   66.5050 C   0  0  0  1  0  0  0  0  0  0  0  0
  -43.2450  -16.6910   66.7460 C   0  0  0  1  0  0  0  0  0  0  0  0
  -42.7509  -17.1929   67.5647 H   0  0  0  1  0  0  0  0  0  0  0  0
  -42.5140  -15.8010   65.9270 C   0  0  0  1  0  0  0  0  0  0  0  0
  -41.4684  -15.6253   66.1325 H   0  0  0  1  0  0  0  0  0  0  0  0
  -43.1280  -15.1420   64.8500 C   0  0  0  1  0  0  0  0  0  0  0  0
  -42.5627  -14.4605   64.2316 H   0  0  0  1  0  0  0  0  0  0  0  0
  -44.4780  -15.3790   64.5890 C   0  0  0  1  0  0  0  0  0  0  0  0
  -44.9601  -14.8861   63.7577 H   0  0  0  1  0  0  0  0  0  0  0  0
  -45.2150  -16.2600   65.4070 C   0  0  0  1  0  0  0  0  0  0  0  0
  -46.2603  -16.4297   65.1951 H   0  0  0  1  0  0  0  0  0  0  0  0
  -49.3546  -21.7250   75.4184 C   0  0  0  1  0  0  0  0  0  0  0  0
  -49.8768  -20.8753   76.3322 N   0  0  0  1  0  0  0  0  0  0  0  0
  -50.5106  -20.1641   75.9959 H   0  0  0  1  0  0  0  0  0  0  0  0
  -49.6710  -20.8943   77.3200 H   0  0  0  1  0  0  0  0  0  0  0  0
  -49.6122  -21.6121   74.2224 O   0  0  0  1  0  0  0  0  0  0  0  0
  1  2  1  0  0  0  0
  1  3  1  0  0  0  0
  1  4  1  0  0  0  0
  4  5  1  0  0  0  0
  4  8  2  0  0  0  0
  5  6  1  0  0  0  0
  5  7  1  0  0  0  0
  8  9  1  0  0  0  0
  9 10  1  0  0  0  0
  9 11  1  0  0  0  0
  9 12  1  0  0  0  0
 12 13  1  0  0  0  0
 12 14  1  0  0  0  0
 12 15  1  0  0  0  0
 15 16  1  0  0  0  0
 15 17  1  0  0  0  0
 15 18  1  0  0  0  0
 18 19  1  0  0  0  0
 18 20  1  0  0  0  0
 18 42  1  0  0  0  0
 20 21  1  0  0  0  0
 20 41  2  0  0  0  0
 21 22  1  0  0  0  0
 21 23  1  0  0  0  0
 23 24  1  0  0  0  0
 23 25  1  0  0  0  0
 23 26  1  0  0  0  0
 26 27  1  0  0  0  0
 26 39  2  0  0  0  0
 27 28  1  0  0  0  0
 27 29  2  0  0  0  0
 29 30  1  0  0  0  0
 29 31  1  0  0  0  0
 31 32  1  0  0  0  0
 31 37  2  0  0  0  0
 32 33  1  0  0  0  0
 32 35  1  0  0  0  0
 32 36  1  0  0  0  0
 33 34  1  0  0  0  0
 33 70  1  0  0  0  0
 37 38  1  0  0  0  0
 37 39  1  0  0  0  0
 39 40  1  0  0  0  0
 42 43  1  0  0  0  0
 42 44  1  0  0  0  0
 44 45  2  0  0  0  0
 44 46  1  0  0  0  0
 46 47  1  0  0  0  0
 46 48  1  0  0  0  0
 46 59  1  0  0  0  0
 48 49  2  0  0  0  0
 48 53  1  0  0  0  0
 49 50  1  0  0  0  0
 49 51  1  0  0  0  0
 51 52  1  0  0  0  0
 51 57  2  0  0  0  0
 53 54  1  0  0  0  0
 53 55  2  0  0  0  0
 55 56  1  0  0  0  0
 55 57  1  0  0  0  0
 57 58  1  0  0  0  0
 59 60  1  0  0  0  0
 59 68  2  0  0  0  0
 60 61  1  0  0  0  0
 60 62  2  0  0  0  0
 62 63  1  0  0  0  0
 62 64  1  0  0  0  0
 64 65  1  0  0  0  0
 64 66  2  0  0  0  0
 66 67  1  0  0  0  0
 66 68  1  0  0  0  0
 68 69  1  0  0  0  0
 70 71  1  0  0  0  0
 70 74  2  0  0  0  0
 71 72  1  0  0  0  0
 71 73  1  0  0  0  0
M  END
> <ConfScore>
-0.889317 

> <SampleByParts>
1 5 4 8 9 71 70 74 33 32 31

$$$$
NPY1_MK299_12302016.pdb.B
  MOE2014           3D

 74 76  0  0  0  0  0  0  0  0999 V2000
  -50.4600  -20.2550   71.1740 N   0  0  0  1  0  0  0  0  0  0  0  0
  -50.9687  -19.4646   70.8044 H   0  0  0  1  0  0  0  0  0  0  0  0
  -50.4571  -20.4863   72.1558 H   0  0  0  1  0  0  0  0  0  0  0  0
  -49.6900  -20.9060   70.2590 C   0  0  0  1  0  0  0  0  0  0  0  0
  -50.2570  -20.8250   69.0000 N   0  0  0  1  0  0  0  0  0  0  0  0
  -49.8842  -21.3783   68.2417 H   0  0  0  1  0  0  0  0  0  0  0  0
  -51.0438  -20.2125   68.8389 H   0  0  0  1  0  0  0  0  0  0  0  0
  -48.6290  -21.7900   70.2920 N   0  0  0  1  0  0  0  0  0  0  0  0
  -47.7070  -22.1200   71.3230 C   0  0  0  1  0  0  0  0  0  0  0  0
  -48.1435  -21.9395   72.3054 H   0  0  0  1  0  0  0  0  0  0  0  0
  -47.3992  -23.1630   71.2482 H   0  0  0  1  0  0  0  0  0  0  0  0
  -46.5220  -21.1840   71.0740 C   0  0  0  1  0  0  0  0  0  0  0  0
  -46.9258  -20.2178   70.7716 H   0  0  0  1  0  0  0  0  0  0  0  0
  -45.9869  -21.0750   72.0173 H   0  0  0  1  0  0  0  0  0  0  0  0
  -45.4860  -21.6160   69.9960 C   0  0  0  1  0  0  0  0  0  0  0  0
  -45.9831  -21.6765   69.0278 H   0  0  0  1  0  0  0  0  0  0  0  0
  -45.0840  -22.5942   70.2597 H   0  0  0  1  0  0  0  0  0  0  0  0
  -44.2930  -20.5720   69.9030 C   0  0  0  1  0  0  0  0  0  0  0  0
  -43.4175  -20.9189   69.3542 H   0  0  0  1  0  0  0  0  0  0  0  0
  -43.9430  -20.2610   71.3950 C   0  0  0  1  0  0  0  0  0  0  0  0
  -43.2680  -21.2970   72.0370 N   0  0  0  1  0  0  0  0  0  0  0  0
  -42.9631  -22.0791   71.4753 H   0  0  0  1  0  0  0  0  0  0  0  0
  -42.9760  -21.3290   73.4430 C   0  0  0  1  0  0  0  0  0  0  0  0
  -42.1220  -21.9707   73.6596 H   0  0  0  1  0  0  0  0  0  0  0  0
  -42.7882  -20.3295   73.8353 H   0  0  0  1  0  0  0  0  0  0  0  0
  -44.2750  -21.9160   74.0000 C   0  0  0  1  0  0  0  0  0  0  0  0
  -44.6710  -23.2570   73.6750 C   0  0  0  1  0  0  0  0  0  0  0  0
  -44.0095  -23.8778   73.0890 H   0  0  0  1  0  0  0  0  0  0  0  0
  -45.9140  -23.7810   74.1090 C   0  0  0  1  0  0  0  0  0  0  0  0
  -46.2001  -24.7938   73.8667 H   0  0  0  1  0  0  0  0  0  0  0  0
  -46.7720  -22.9500   74.8660 C   0  0  0  1  0  0  0  0  0  0  0  0
  -48.0010  -23.3600   75.3380 C   0  0  0  1  0  0  0  0  0  0  0  0
  -48.4837  -22.6994   75.8401 N   0  0  0  1  0  0  0  0  0  0  0  0
  -48.4081  -21.7064   75.6342 H   0  0  0  1  0  0  0  0  0  0  0  0
  -48.5764  -23.6616   74.4454 H   0  0  0  1  0  0  0  0  0  0  0  0
  -47.8678  -24.3468   75.8109 H   0  0  0  1  0  0  0  0  0  0  0  0
  -46.3920  -21.6040   75.1900 C   0  0  0  1  0  0  0  0  0  0  0  0
  -47.0635  -20.9775   75.7583 H   0  0  0  1  0  0  0  0  0  0  0  0
  -45.1510  -21.0990   74.7710 C   0  0  0  1  0  0  0  0  0  0  0  0
  -44.8607  -20.0922   75.0329 H   0  0  0  1  0  0  0  0  0  0  0  0
  -44.2390  -19.1780   71.9410 O   0  0  0  1  0  0  0  0  0  0  0  0
  -44.8310  -19.3810   69.2410 N   0  0  0  1  0  0  0  0  0  0  0  0
  -45.3418  -18.7187   69.8071 H   0  0  0  1  0  0  0  0  0  0  0  0
  -44.6870  -19.1000   67.8890 C   0  0  0  1  0  0  0  0  0  0  0  0
  -44.0790  -19.8190   67.1090 O   0  0  0  1  0  0  0  0  0  0  0  0
  -45.4070  -17.8340   67.4640 C   0  0  0  1  0  0  0  0  0  0  0  0
  -45.5191  -17.1446   68.3008 H   0  0  0  1  0  0  0  0  0  0  0  0
  -46.7920  -18.2790   66.9880 C   0  0  0  1  0  0  0  0  0  0  0  0
  -47.9390  -17.9030   67.6910 C   0  0  0  1  0  0  0  0  0  0  0  0
  -47.8686  -17.2440   68.5437 H   0  0  0  1  0  0  0  0  0  0  0  0
  -49.1880  -18.3970   67.2700 C   0  0  0  1  0  0  0  0  0  0  0  0
  -50.0790  -18.1102   67.8088 H   0  0  0  1  0  0  0  0  0  0  0  0
  -46.9160  -19.1540   65.8530 C   0  0  0  1  0  0  0  0  0  0  0  0
  -46.0285  -19.4383   65.3071 H   0  0  0  1  0  0  0  0  0  0  0  0
  -48.1600  -19.6460   65.4390 C   0  0  0  1  0  0  0  0  0  0  0  0
  -48.2363  -20.3059   64.5875 H   0  0  0  1  0  0  0  0  0  0  0  0
  -49.3010  -19.2650   66.1510 C   0  0  0  1  0  0  0  0  0  0  0  0
  -50.2712  -19.6315   65.8496 H   0  0  0  1  0  0  0  0  0  0  0  0
  -44.6090  -16.9290   66.5050 C   0  0  0  1  0  0  0  0  0  0  0  0
  -43.2450  -16.6910   66.7460 C   0  0  0  1  0  0  0  0  0  0  0  0
  -42.7509  -17.1929   67.5647 H   0  0  0  1  0  0  0  0  0  0  0  0
  -42.5140  -15.8010   65.9270 C   0  0  0  1  0  0  0  0  0  0  0  0
  -41.4684  -15.6253   66.1325 H   0  0  0  1  0  0  0  0  0  0  0  0
  -43.1280  -15.1420   64.8500 C   0  0  0  1  0  0  0  0  0  0  0  0
  -42.5627  -14.4605   64.2316 H   0  0  0  1  0  0  0  0  0  0  0  0
  -44.4780  -15.3790   64.5890 C   0  0  0  1  0  0  0  0  0  0  0  0
  -44.9601  -14.8861   63.7577 H   0  0  0  1  0  0  0  0  0  0  0  0
  -45.2150  -16.2600   65.4070 C   0  0  0  1  0  0  0  0  0  0  0  0
  -46.2603  -16.4297   65.1951 H   0  0  0  1  0  0  0  0  0  0  0  0
  -49.3836  -22.8471   76.8668 C   0  0  0  1  0  0  0  0  0  0  0  0
  -49.9347  -21.7410   77.4169 N   0  0  0  1  0  0  0  0  0  0  0  0
  -50.5978  -21.8766   78.1669 H   0  0  0  1  0  0  0  0  0  0  0  0
  -49.7397  -20.7946   77.1256 H   0  0  0  1  0  0  0  0  0  0  0  0
  -49.7053  -23.9726   77.2399 O   0  0  0  1  0  0  0  0  0  0  0  0
  1  2  1  0  0  0  0
  1  3  1  0  0  0  0
  1  4  1  0  0  0  0
  4  5  1  0  0  0  0
  4  8  2  0  0  0  0
  5  6  1  0  0  0  0
  5  7  1  0  0  0  0
  8  9  1  0  0  0  0
  9 10  1  0  0  0  0
  9 11  1  0  0  0  0
  9 12  1  0  0  0  0
 12 13  1  0  0  0  0
 12 14  1  0  0  0  0
 12 15  1  0  0  0  0
 15 16  1  0  0  0  0
 15 17  1  0  0  0  0
 15 18  1  0  0  0  0
 18 19  1  0  0  0  0
 18 20  1  0  0  0  0
 18 42  1  0  0  0  0
 20 21  1  0  0  0  0
 20 41  2  0  0  0  0
 21 22  1  0  0  0  0
 21 23  1  0  0  0  0
 23 24  1  0  0  0  0
 23 25  1  0  0  0  0
 23 26  1  0  0  0  0
 26 27  1  0  0  0  0
 26 39  2  0  0  0  0
 27 28  1  0  0  0  0
 27 29  2  0  0  0  0
 29 30  1  0  0  0  0
 29 31  1  0  0  0  0
 31 32  1  0  0  0  0
 31 37  2  0  0  0  0
 32 33  1  0  0  0  0
 32 35  1  0  0  0  0
 32 36  1  0  0  0  0
 33 34  1  0  0  0  0
 33 70  1  0  0  0  0
 37 38  1  0  0  0  0
 37 39  1  0  0  0  0
 39 40  1  0  0  0  0
 42 43  1  0  0  0  0
 42 44  1  0  0  0  0
 44 45  2  0  0  0  0
 44 46  1  0  0  0  0
 46 47  1  0  0  0  0
 46 48  1  0  0  0  0
 46 59  1  0  0  0  0
 48 49  2  0  0  0  0
 48 53  1  0  0  0  0
 49 50  1  0  0  0  0
 49 51  1  0  0  0  0
 51 52  1  0  0  0  0
 51 57  2  0  0  0  0
 53 54  1  0  0  0  0
 53 55  2  0  0  0  0
 55 56  1  0  0  0  0
 55 57  1  0  0  0  0
 57 58  1  0  0  0  0
 59 60  1  0  0  0  0
 59 68  2  0  0  0  0
 60 61  1  0  0  0  0
 60 62  2  0  0  0  0
 62 63  1  0  0  0  0
 62 64  1  0  0  0  0
 64 65  1  0  0  0  0
 64 66  2  0  0  0  0
 66 67  1  0  0  0  0
 66 68  1  0  0  0  0
 68 69  1  0  0  0  0
 70 71  1  0  0  0  0
 70 74  2  0  0  0  0
 71 72  1  0  0  0  0
 71 73  1  0  0  0  0
M  END
> <ConfScore>
-0.765892 

> <SampleByParts>
1 5 4 8 9 71 70 74 33 32 31

$$$$
