NPY1_MK299_12302016.pdb.B
  MOE2014           3D

 92 94  0  0  0  0  0  0  0  0999 V2000
  -54.8898  -16.8158   75.8022 C   0  0  0  1  0  0  0  0  0  0  0  0
  -53.9847  -16.3969   76.2514 H   0  0  0  1  0  0  0  0  0  0  0  0
  -55.7079  -16.1054   75.9612 H   0  0  0  1  0  0  0  0  0  0  0  0
  -55.2526  -18.0452   76.4899 N   0  0  0  1  0  0  0  0  0  0  0  0
  -56.0394  -18.5705   76.1275 H   0  0  0  1  0  0  0  0  0  0  0  0
  -54.6744  -18.6195   77.5894 C   0  0  0  1  0  0  0  0  0  0  0  0
  -55.2776  -19.9146   78.0984 C   0  0  0  1  0  0  0  0  0  0  0  0
  -54.4635  -20.5932   78.3749 H   0  0  0  1  0  0  0  0  0  0  0  0
  -55.8584  -20.3782   77.2949 H   0  0  0  1  0  0  0  0  0  0  0  0
  -56.1778  -19.7010   79.3021 C   0  0  0  1  0  0  0  0  0  0  0  0
  -56.6053  -20.6523   79.6336 H   0  0  0  1  0  0  0  0  0  0  0  0
  -57.0000  -19.0224   79.0577 H   0  0  0  1  0  0  0  0  0  0  0  0
  -55.6209  -19.2658   80.1383 H   0  0  0  1  0  0  0  0  0  0  0  0
  -54.6913  -17.0713   74.3135 C   0  0  0  1  0  0  0  0  0  0  0  0
  -55.6129  -17.5020   73.9074 H   0  0  0  1  0  0  0  0  0  0  0  0
  -54.5443  -16.1180   73.7900 H   0  0  0  1  0  0  0  0  0  0  0  0
  -53.5013  -17.9996   74.0310 C   0  0  0  1  0  0  0  0  0  0  0  0
  -52.5896  -17.5621   74.4377 H   0  0  0  1  0  0  0  0  0  0  0  0
  -53.6834  -18.9647   74.5038 H   0  0  0  1  0  0  0  0  0  0  0  0
  -53.3236  -18.2103   72.4986 C   0  0  0  1  0  0  0  0  0  0  0  0
  -53.2135  -17.2432   72.0078 H   0  0  0  1  0  0  0  0  0  0  0  0
  -54.1973  -18.7238   72.0973 H   0  0  0  1  0  0  0  0  0  0  0  0
  -52.1280  -19.0191   72.2603 N   0  0  0  1  0  0  0  0  0  0  0  0
  -51.5786  -19.2591   73.0731 H   0  0  0  1  0  0  0  0  0  0  0  0
  -51.6594  -19.4991   71.0244 C   0  0  0  1  0  0  0  0  0  0  0  0
  -52.2504  -19.1989   69.9736 O   0  0  0  1  0  0  0  0  0  0  0  0
  -50.4600  -20.2550   71.1740 N   0  0  0  1  0  0  0  0  0  0  0  0
  -50.1228  -20.3188   72.1239 H   0  0  0  1  0  0  0  0  0  0  0  0
  -49.6900  -20.9060   70.2590 C   0  0  0  1  0  0  0  0  0  0  0  0
  -50.2570  -20.8250   69.0000 N   0  0  0  1  0  0  0  0  0  0  0  0
  -49.8842  -21.3783   68.2417 H   0  0  0  1  0  0  0  0  0  0  0  0
  -51.0438  -20.2125   68.8389 H   0  0  0  1  0  0  0  0  0  0  0  0
  -48.6290  -21.7900   70.2920 N   0  0  0  1  0  0  0  0  0  0  0  0
  -47.7070  -22.1200   71.3230 C   0  0  0  1  0  0  0  0  0  0  0  0
  -48.1435  -21.9395   72.3054 H   0  0  0  1  0  0  0  0  0  0  0  0
  -47.3992  -23.1630   71.2482 H   0  0  0  1  0  0  0  0  0  0  0  0
  -46.5220  -21.1840   71.0740 C   0  0  0  1  0  0  0  0  0  0  0  0
  -46.9258  -20.2178   70.7716 H   0  0  0  1  0  0  0  0  0  0  0  0
  -45.9869  -21.0750   72.0173 H   0  0  0  1  0  0  0  0  0  0  0  0
  -45.4860  -21.6160   69.9960 C   0  0  0  1  0  0  0  0  0  0  0  0
  -45.9831  -21.6765   69.0278 H   0  0  0  1  0  0  0  0  0  0  0  0
  -45.0840  -22.5942   70.2597 H   0  0  0  1  0  0  0  0  0  0  0  0
  -44.2930  -20.5720   69.9030 C   0  0  0  1  0  0  0  0  0  0  0  0
  -43.4175  -20.9189   69.3542 H   0  0  0  1  0  0  0  0  0  0  0  0
  -43.9430  -20.2610   71.3950 C   0  0  0  1  0  0  0  0  0  0  0  0
  -43.2680  -21.2970   72.0370 N   0  0  0  1  0  0  0  0  0  0  0  0
  -42.9631  -22.0791   71.4753 H   0  0  0  1  0  0  0  0  0  0  0  0
  -42.9760  -21.3290   73.4430 C   0  0  0  1  0  0  0  0  0  0  0  0
  -42.1220  -21.9707   73.6596 H   0  0  0  1  0  0  0  0  0  0  0  0
  -42.7882  -20.3295   73.8353 H   0  0  0  1  0  0  0  0  0  0  0  0
  -44.2750  -21.9160   74.0000 C   0  0  0  1  0  0  0  0  0  0  0  0
  -44.6710  -23.2570   73.6750 C   0  0  0  1  0  0  0  0  0  0  0  0
  -44.0095  -23.8778   73.0890 H   0  0  0  1  0  0  0  0  0  0  0  0
  -45.9140  -23.7810   74.1090 C   0  0  0  1  0  0  0  0  0  0  0  0
  -46.2001  -24.7938   73.8667 H   0  0  0  1  0  0  0  0  0  0  0  0
  -46.7720  -22.9500   74.8660 C   0  0  0  1  0  0  0  0  0  0  0  0
  -48.0010  -23.3600   75.3380 O   0  0  0  1  0  0  0  0  0  0  0  0
  -48.4837  -22.6994   75.8401 H   0  0  0  1  0  0  0  0  0  0  0  0
  -46.3920  -21.6040   75.1900 C   0  0  0  1  0  0  0  0  0  0  0  0
  -47.0635  -20.9775   75.7583 H   0  0  0  1  0  0  0  0  0  0  0  0
  -45.1510  -21.0990   74.7710 C   0  0  0  1  0  0  0  0  0  0  0  0
  -44.8607  -20.0922   75.0329 H   0  0  0  1  0  0  0  0  0  0  0  0
  -44.2390  -19.1780   71.9410 O   0  0  0  1  0  0  0  0  0  0  0  0
  -44.8310  -19.3810   69.2410 N   0  0  0  1  0  0  0  0  0  0  0  0
  -45.3418  -18.7187   69.8071 H   0  0  0  1  0  0  0  0  0  0  0  0
  -44.6870  -19.1000   67.8890 C   0  0  0  1  0  0  0  0  0  0  0  0
  -44.0790  -19.8190   67.1090 O   0  0  0  1  0  0  0  0  0  0  0  0
  -45.4070  -17.8340   67.4640 C   0  0  0  1  0  0  0  0  0  0  0  0
  -45.5191  -17.1446   68.3008 H   0  0  0  1  0  0  0  0  0  0  0  0
  -46.7920  -18.2790   66.9880 C   0  0  0  1  0  0  0  0  0  0  0  0
  -47.9390  -17.9030   67.6910 C   0  0  0  1  0  0  0  0  0  0  0  0
  -47.8686  -17.2440   68.5437 H   0  0  0  1  0  0  0  0  0  0  0  0
  -49.1880  -18.3970   67.2700 C   0  0  0  1  0  0  0  0  0  0  0  0
  -50.0790  -18.1102   67.8088 H   0  0  0  1  0  0  0  0  0  0  0  0
  -46.9160  -19.1540   65.8530 C   0  0  0  1  0  0  0  0  0  0  0  0
  -46.0285  -19.4383   65.3071 H   0  0  0  1  0  0  0  0  0  0  0  0
  -48.1600  -19.6460   65.4390 C   0  0  0  1  0  0  0  0  0  0  0  0
  -48.2363  -20.3059   64.5875 H   0  0  0  1  0  0  0  0  0  0  0  0
  -49.3010  -19.2650   66.1510 C   0  0  0  1  0  0  0  0  0  0  0  0
  -50.2712  -19.6315   65.8496 H   0  0  0  1  0  0  0  0  0  0  0  0
  -44.6090  -16.9290   66.5050 C   0  0  0  1  0  0  0  0  0  0  0  0
  -43.2450  -16.6910   66.7460 C   0  0  0  1  0  0  0  0  0  0  0  0
  -42.7509  -17.1929   67.5647 H   0  0  0  1  0  0  0  0  0  0  0  0
  -42.5140  -15.8010   65.9270 C   0  0  0  1  0  0  0  0  0  0  0  0
  -41.4684  -15.6253   66.1325 H   0  0  0  1  0  0  0  0  0  0  0  0
  -43.1280  -15.1420   64.8500 C   0  0  0  1  0  0  0  0  0  0  0  0
  -42.5627  -14.4605   64.2316 H   0  0  0  1  0  0  0  0  0  0  0  0
  -44.4780  -15.3790   64.5890 C   0  0  0  1  0  0  0  0  0  0  0  0
  -44.9601  -14.8861   63.7577 H   0  0  0  1  0  0  0  0  0  0  0  0
  -45.2150  -16.2600   65.4070 C   0  0  0  1  0  0  0  0  0  0  0  0
  -46.2603  -16.4297   65.1951 H   0  0  0  1  0  0  0  0  0  0  0  0
  -53.6976  -18.0782   78.1055 O   0  0  0  1  0  0  0  0  0  0  0  0
  1  2  1  0  0  0  0
  1  3  1  0  0  0  0
  1  4  1  0  0  0  0
  1 14  1  0  0  0  0
  4  5  1  0  0  0  0
  4  6  1  0  0  0  0
  6  7  1  0  0  0  0
  6 92  2  0  0  0  0
  7  8  1  0  0  0  0
  7  9  1  0  0  0  0
  7 10  1  0  0  0  0
 10 11  1  0  0  0  0
 10 12  1  0  0  0  0
 10 13  1  0  0  0  0
 14 15  1  0  0  0  0
 14 16  1  0  0  0  0
 14 17  1  0  0  0  0
 17 18  1  0  0  0  0
 17 19  1  0  0  0  0
 17 20  1  0  0  0  0
 20 21  1  0  0  0  0
 20 22  1  0  0  0  0
 20 23  1  0  0  0  0
 23 24  1  0  0  0  0
 23 25  1  0  0  0  0
 25 26  2  0  0  0  0
 25 27  1  0  0  0  0
 27 28  1  0  0  0  0
 27 29  1  0  0  0  0
 29 30  1  0  0  0  0
 29 33  2  0  0  0  0
 30 31  1  0  0  0  0
 30 32  1  0  0  0  0
 33 34  1  0  0  0  0
 34 35  1  0  0  0  0
 34 36  1  0  0  0  0
 34 37  1  0  0  0  0
 37 38  1  0  0  0  0
 37 39  1  0  0  0  0
 37 40  1  0  0  0  0
 40 41  1  0  0  0  0
 40 42  1  0  0  0  0
 40 43  1  0  0  0  0
 43 44  1  0  0  0  0
 43 45  1  0  0  0  0
 43 64  1  0  0  0  0
 45 46  1  0  0  0  0
 45 63  2  0  0  0  0
 46 47  1  0  0  0  0
 46 48  1  0  0  0  0
 48 49  1  0  0  0  0
 48 50  1  0  0  0  0
 48 51  1  0  0  0  0
 51 52  1  0  0  0  0
 51 61  2  0  0  0  0
 52 53  1  0  0  0  0
 52 54  2  0  0  0  0
 54 55  1  0  0  0  0
 54 56  1  0  0  0  0
 56 57  1  0  0  0  0
 56 59  2  0  0  0  0
 57 58  1  0  0  0  0
 59 60  1  0  0  0  0
 59 61  1  0  0  0  0
 61 62  1  0  0  0  0
 64 65  1  0  0  0  0
 64 66  1  0  0  0  0
 66 67  2  0  0  0  0
 66 68  1  0  0  0  0
 68 69  1  0  0  0  0
 68 70  1  0  0  0  0
 68 81  1  0  0  0  0
 70 71  2  0  0  0  0
 70 75  1  0  0  0  0
 71 72  1  0  0  0  0
 71 73  1  0  0  0  0
 73 74  1  0  0  0  0
 73 79  2  0  0  0  0
 75 76  1  0  0  0  0
 75 77  2  0  0  0  0
 77 78  1  0  0  0  0
 77 79  1  0  0  0  0
 79 80  1  0  0  0  0
 81 82  1  0  0  0  0
 81 90  2  0  0  0  0
 82 83  1  0  0  0  0
 82 84  2  0  0  0  0
 84 85  1  0  0  0  0
 84 86  1  0  0  0  0
 86 87  1  0  0  0  0
 86 88  2  0  0  0  0
 88 89  1  0  0  0  0
 88 90  1  0  0  0  0
 90 91  1  0  0  0  0
M  END
> <ConfScore>
-0.781212 

> <SampleByParts>
10 7 6 92 4 1 14 17 20 23 25 26 27 29 30 33

$$$$
NPY1_MK299_12302016.pdb.B
  MOE2014           3D

 92 94  0  0  0  0  0  0  0  0999 V2000
  -54.5972  -16.3486   75.7052 C   0  0  0  1  0  0  0  0  0  0  0  0
  -53.6938  -15.8814   76.1077 H   0  0  0  1  0  0  0  0  0  0  0  0
  -55.4320  -15.6551   75.8509 H   0  0  0  1  0  0  0  0  0  0  0  0
  -54.9046  -17.5514   76.4634 N   0  0  0  1  0  0  0  0  0  0  0  0
  -55.7301  -18.0751   76.1976 H   0  0  0  1  0  0  0  0  0  0  0  0
  -54.2267  -18.1016   77.5174 C   0  0  0  1  0  0  0  0  0  0  0  0
  -54.7872  -19.3763   78.1182 C   0  0  0  1  0  0  0  0  0  0  0  0
  -53.9623  -19.9449   78.5611 H   0  0  0  1  0  0  0  0  0  0  0  0
  -55.2366  -19.9788   77.3226 H   0  0  0  1  0  0  0  0  0  0  0  0
  -55.8324  -19.1034   79.1850 C   0  0  0  1  0  0  0  0  0  0  0  0
  -56.2239  -20.0433   79.5862 H   0  0  0  1  0  0  0  0  0  0  0  0
  -56.6689  -18.5318   78.7731 H   0  0  0  1  0  0  0  0  0  0  0  0
  -55.4083  -18.5274   80.0139 H   0  0  0  1  0  0  0  0  0  0  0  0
  -54.4299  -16.6738   74.2263 C   0  0  0  1  0  0  0  0  0  0  0  0
  -55.3672  -17.1019   73.8549 H   0  0  0  1  0  0  0  0  0  0  0  0
  -54.2719  -15.7480   73.6586 H   0  0  0  1  0  0  0  0  0  0  0  0
  -53.2647  -17.6394   73.9660 C   0  0  0  1  0  0  0  0  0  0  0  0
  -52.3275  -17.1753   74.2731 H   0  0  0  1  0  0  0  0  0  0  0  0
  -53.4239  -18.5517   74.5409 H   0  0  0  1  0  0  0  0  0  0  0  0
  -53.1809  -18.0004   72.4537 C   0  0  0  1  0  0  0  0  0  0  0  0
  -53.0234  -17.0932   71.8704 H   0  0  0  1  0  0  0  0  0  0  0  0
  -54.1098  -18.4770   72.1405 H   0  0  0  1  0  0  0  0  0  0  0  0
  -52.0629  -18.9197   72.2406 N   0  0  0  1  0  0  0  0  0  0  0  0
  -51.5213  -19.1654   73.0568 H   0  0  0  1  0  0  0  0  0  0  0  0
  -51.6594  -19.4991   71.0244 C   0  0  0  1  0  0  0  0  0  0  0  0
  -52.2990  -19.2741   69.9833 O   0  0  0  1  0  0  0  0  0  0  0  0
  -50.4600  -20.2550   71.1740 N   0  0  0  1  0  0  0  0  0  0  0  0
  -50.1228  -20.3188   72.1239 H   0  0  0  1  0  0  0  0  0  0  0  0
  -49.6900  -20.9060   70.2590 C   0  0  0  1  0  0  0  0  0  0  0  0
  -50.2570  -20.8250   69.0000 N   0  0  0  1  0  0  0  0  0  0  0  0
  -49.8842  -21.3783   68.2417 H   0  0  0  1  0  0  0  0  0  0  0  0
  -51.0438  -20.2125   68.8389 H   0  0  0  1  0  0  0  0  0  0  0  0
  -48.6290  -21.7900   70.2920 N   0  0  0  1  0  0  0  0  0  0  0  0
  -47.7070  -22.1200   71.3230 C   0  0  0  1  0  0  0  0  0  0  0  0
  -48.1435  -21.9395   72.3054 H   0  0  0  1  0  0  0  0  0  0  0  0
  -47.3992  -23.1630   71.2482 H   0  0  0  1  0  0  0  0  0  0  0  0
  -46.5220  -21.1840   71.0740 C   0  0  0  1  0  0  0  0  0  0  0  0
  -46.9258  -20.2178   70.7716 H   0  0  0  1  0  0  0  0  0  0  0  0
  -45.9869  -21.0750   72.0173 H   0  0  0  1  0  0  0  0  0  0  0  0
  -45.4860  -21.6160   69.9960 C   0  0  0  1  0  0  0  0  0  0  0  0
  -45.9831  -21.6765   69.0278 H   0  0  0  1  0  0  0  0  0  0  0  0
  -45.0840  -22.5942   70.2597 H   0  0  0  1  0  0  0  0  0  0  0  0
  -44.2930  -20.5720   69.9030 C   0  0  0  1  0  0  0  0  0  0  0  0
  -43.4175  -20.9189   69.3542 H   0  0  0  1  0  0  0  0  0  0  0  0
  -43.9430  -20.2610   71.3950 C   0  0  0  1  0  0  0  0  0  0  0  0
  -43.2680  -21.2970   72.0370 N   0  0  0  1  0  0  0  0  0  0  0  0
  -42.9631  -22.0791   71.4753 H   0  0  0  1  0  0  0  0  0  0  0  0
  -42.9760  -21.3290   73.4430 C   0  0  0  1  0  0  0  0  0  0  0  0
  -42.1220  -21.9707   73.6596 H   0  0  0  1  0  0  0  0  0  0  0  0
  -42.7882  -20.3295   73.8353 H   0  0  0  1  0  0  0  0  0  0  0  0
  -44.2750  -21.9160   74.0000 C   0  0  0  1  0  0  0  0  0  0  0  0
  -44.6710  -23.2570   73.6750 C   0  0  0  1  0  0  0  0  0  0  0  0
  -44.0095  -23.8778   73.0890 H   0  0  0  1  0  0  0  0  0  0  0  0
  -45.9140  -23.7810   74.1090 C   0  0  0  1  0  0  0  0  0  0  0  0
  -46.2001  -24.7938   73.8667 H   0  0  0  1  0  0  0  0  0  0  0  0
  -46.7720  -22.9500   74.8660 C   0  0  0  1  0  0  0  0  0  0  0  0
  -48.0010  -23.3600   75.3380 O   0  0  0  1  0  0  0  0  0  0  0  0
  -48.4837  -22.6994   75.8401 H   0  0  0  1  0  0  0  0  0  0  0  0
  -46.3920  -21.6040   75.1900 C   0  0  0  1  0  0  0  0  0  0  0  0
  -47.0635  -20.9775   75.7583 H   0  0  0  1  0  0  0  0  0  0  0  0
  -45.1510  -21.0990   74.7710 C   0  0  0  1  0  0  0  0  0  0  0  0
  -44.8607  -20.0922   75.0329 H   0  0  0  1  0  0  0  0  0  0  0  0
  -44.2390  -19.1780   71.9410 O   0  0  0  1  0  0  0  0  0  0  0  0
  -44.8310  -19.3810   69.2410 N   0  0  0  1  0  0  0  0  0  0  0  0
  -45.3418  -18.7187   69.8071 H   0  0  0  1  0  0  0  0  0  0  0  0
  -44.6870  -19.1000   67.8890 C   0  0  0  1  0  0  0  0  0  0  0  0
  -44.0790  -19.8190   67.1090 O   0  0  0  1  0  0  0  0  0  0  0  0
  -45.4070  -17.8340   67.4640 C   0  0  0  1  0  0  0  0  0  0  0  0
  -45.5191  -17.1446   68.3008 H   0  0  0  1  0  0  0  0  0  0  0  0
  -46.7920  -18.2790   66.9880 C   0  0  0  1  0  0  0  0  0  0  0  0
  -47.9390  -17.9030   67.6910 C   0  0  0  1  0  0  0  0  0  0  0  0
  -47.8686  -17.2440   68.5437 H   0  0  0  1  0  0  0  0  0  0  0  0
  -49.1880  -18.3970   67.2700 C   0  0  0  1  0  0  0  0  0  0  0  0
  -50.0790  -18.1102   67.8088 H   0  0  0  1  0  0  0  0  0  0  0  0
  -46.9160  -19.1540   65.8530 C   0  0  0  1  0  0  0  0  0  0  0  0
  -46.0285  -19.4383   65.3071 H   0  0  0  1  0  0  0  0  0  0  0  0
  -48.1600  -19.6460   65.4390 C   0  0  0  1  0  0  0  0  0  0  0  0
  -48.2363  -20.3059   64.5875 H   0  0  0  1  0  0  0  0  0  0  0  0
  -49.3010  -19.2650   66.1510 C   0  0  0  1  0  0  0  0  0  0  0  0
  -50.2712  -19.6315   65.8496 H   0  0  0  1  0  0  0  0  0  0  0  0
  -44.6090  -16.9290   66.5050 C   0  0  0  1  0  0  0  0  0  0  0  0
  -43.2450  -16.6910   66.7460 C   0  0  0  1  0  0  0  0  0  0  0  0
  -42.7509  -17.1929   67.5647 H   0  0  0  1  0  0  0  0  0  0  0  0
  -42.5140  -15.8010   65.9270 C   0  0  0  1  0  0  0  0  0  0  0  0
  -41.4684  -15.6253   66.1325 H   0  0  0  1  0  0  0  0  0  0  0  0
  -43.1280  -15.1420   64.8500 C   0  0  0  1  0  0  0  0  0  0  0  0
  -42.5627  -14.4605   64.2316 H   0  0  0  1  0  0  0  0  0  0  0  0
  -44.4780  -15.3790   64.5890 C   0  0  0  1  0  0  0  0  0  0  0  0
  -44.9601  -14.8861   63.7577 H   0  0  0  1  0  0  0  0  0  0  0  0
  -45.2150  -16.2600   65.4070 C   0  0  0  1  0  0  0  0  0  0  0  0
  -46.2603  -16.4297   65.1951 H   0  0  0  1  0  0  0  0  0  0  0  0
  -53.2004  -17.5564   77.9211 O   0  0  0  1  0  0  0  0  0  0  0  0
  1  2  1  0  0  0  0
  1  3  1  0  0  0  0
  1  4  1  0  0  0  0
  1 14  1  0  0  0  0
  4  5  1  0  0  0  0
  4  6  1  0  0  0  0
  6  7  1  0  0  0  0
  6 92  2  0  0  0  0
  7  8  1  0  0  0  0
  7  9  1  0  0  0  0
  7 10  1  0  0  0  0
 10 11  1  0  0  0  0
 10 12  1  0  0  0  0
 10 13  1  0  0  0  0
 14 15  1  0  0  0  0
 14 16  1  0  0  0  0
 14 17  1  0  0  0  0
 17 18  1  0  0  0  0
 17 19  1  0  0  0  0
 17 20  1  0  0  0  0
 20 21  1  0  0  0  0
 20 22  1  0  0  0  0
 20 23  1  0  0  0  0
 23 24  1  0  0  0  0
 23 25  1  0  0  0  0
 25 26  2  0  0  0  0
 25 27  1  0  0  0  0
 27 28  1  0  0  0  0
 27 29  1  0  0  0  0
 29 30  1  0  0  0  0
 29 33  2  0  0  0  0
 30 31  1  0  0  0  0
 30 32  1  0  0  0  0
 33 34  1  0  0  0  0
 34 35  1  0  0  0  0
 34 36  1  0  0  0  0
 34 37  1  0  0  0  0
 37 38  1  0  0  0  0
 37 39  1  0  0  0  0
 37 40  1  0  0  0  0
 40 41  1  0  0  0  0
 40 42  1  0  0  0  0
 40 43  1  0  0  0  0
 43 44  1  0  0  0  0
 43 45  1  0  0  0  0
 43 64  1  0  0  0  0
 45 46  1  0  0  0  0
 45 63  2  0  0  0  0
 46 47  1  0  0  0  0
 46 48  1  0  0  0  0
 48 49  1  0  0  0  0
 48 50  1  0  0  0  0
 48 51  1  0  0  0  0
 51 52  1  0  0  0  0
 51 61  2  0  0  0  0
 52 53  1  0  0  0  0
 52 54  2  0  0  0  0
 54 55  1  0  0  0  0
 54 56  1  0  0  0  0
 56 57  1  0  0  0  0
 56 59  2  0  0  0  0
 57 58  1  0  0  0  0
 59 60  1  0  0  0  0
 59 61  1  0  0  0  0
 61 62  1  0  0  0  0
 64 65  1  0  0  0  0
 64 66  1  0  0  0  0
 66 67  2  0  0  0  0
 66 68  1  0  0  0  0
 68 69  1  0  0  0  0
 68 70  1  0  0  0  0
 68 81  1  0  0  0  0
 70 71  2  0  0  0  0
 70 75  1  0  0  0  0
 71 72  1  0  0  0  0
 71 73  1  0  0  0  0
 73 74  1  0  0  0  0
 73 79  2  0  0  0  0
 75 76  1  0  0  0  0
 75 77  2  0  0  0  0
 77 78  1  0  0  0  0
 77 79  1  0  0  0  0
 79 80  1  0  0  0  0
 81 82  1  0  0  0  0
 81 90  2  0  0  0  0
 82 83  1  0  0  0  0
 82 84  2  0  0  0  0
 84 85  1  0  0  0  0
 84 86  1  0  0  0  0
 86 87  1  0  0  0  0
 86 88  2  0  0  0  0
 88 89  1  0  0  0  0
 88 90  1  0  0  0  0
 90 91  1  0  0  0  0
M  END
> <ConfScore>
-0.781212 

> <SampleByParts>
10 7 6 92 4 1 14 17 20 23 25 26 27 29 30 33

$$$$
NPY1_MK299_12302016.pdb.B
  MOE2014           3D

 92 94  0  0  0  0  0  0  0  0999 V2000
  -54.5189  -16.2684   75.6903 C   0  0  0  1  0  0  0  0  0  0  0  0
  -53.6743  -15.6099   75.9119 H   0  0  0  1  0  0  0  0  0  0  0  0
  -55.4426  -15.7109   75.8779 H   0  0  0  1  0  0  0  0  0  0  0  0
  -54.5101  -17.3993   76.6052 N   0  0  0  1  0  0  0  0  0  0  0  0
  -55.2433  -18.0909   76.5031 H   0  0  0  1  0  0  0  0  0  0  0  0
  -53.6333  -17.6808   77.6177 C   0  0  0  1  0  0  0  0  0  0  0  0
  -53.8923  -18.9301   78.4375 C   0  0  0  1  0  0  0  0  0  0  0  0
  -52.9322  -19.4124   78.6506 H   0  0  0  1  0  0  0  0  0  0  0  0
  -54.5057  -19.6214   77.8512 H   0  0  0  1  0  0  0  0  0  0  0  0
  -54.5985  -18.6280   79.7471 C   0  0  0  1  0  0  0  0  0  0  0  0
  -54.7809  -19.5514   80.3052 H   0  0  0  1  0  0  0  0  0  0  0  0
  -55.5610  -18.1407   79.5668 H   0  0  0  1  0  0  0  0  0  0  0  0
  -53.9975  -17.9616   80.3743 H   0  0  0  1  0  0  0  0  0  0  0  0
  -54.4726  -16.7466   74.2445 C   0  0  0  1  0  0  0  0  0  0  0  0
  -55.3538  -17.3685   74.0541 H   0  0  0  1  0  0  0  0  0  0  0  0
  -54.5543  -15.8871   73.5669 H   0  0  0  1  0  0  0  0  0  0  0  0
  -53.1906  -17.5296   73.9263 C   0  0  0  1  0  0  0  0  0  0  0  0
  -52.3225  -16.8855   74.0667 H   0  0  0  1  0  0  0  0  0  0  0  0
  -53.1207  -18.3851   74.5981 H   0  0  0  1  0  0  0  0  0  0  0  0
  -53.2120  -18.0393   72.4553 C   0  0  0  1  0  0  0  0  0  0  0  0
  -53.1402  -17.1912   71.7743 H   0  0  0  1  0  0  0  0  0  0  0  0
  -54.1416  -18.5770   72.2691 H   0  0  0  1  0  0  0  0  0  0  0  0
  -52.0762  -18.9364   72.2412 N   0  0  0  1  0  0  0  0  0  0  0  0
  -51.5156  -19.1531   73.0529 H   0  0  0  1  0  0  0  0  0  0  0  0
  -51.6792  -19.5304   71.0299 C   0  0  0  1  0  0  0  0  0  0  0  0
  -52.3410  -19.3411   69.9956 O   0  0  0  1  0  0  0  0  0  0  0  0
  -50.4600  -20.2550   71.1740 N   0  0  0  1  0  0  0  0  0  0  0  0
  -50.1058  -20.2919   72.1192 H   0  0  0  1  0  0  0  0  0  0  0  0
  -49.6900  -20.9060   70.2590 C   0  0  0  1  0  0  0  0  0  0  0  0
  -50.2570  -20.8250   69.0000 N   0  0  0  1  0  0  0  0  0  0  0  0
  -49.8842  -21.3783   68.2417 H   0  0  0  1  0  0  0  0  0  0  0  0
  -51.0438  -20.2125   68.8389 H   0  0  0  1  0  0  0  0  0  0  0  0
  -48.6290  -21.7900   70.2920 N   0  0  0  1  0  0  0  0  0  0  0  0
  -47.7070  -22.1200   71.3230 C   0  0  0  1  0  0  0  0  0  0  0  0
  -48.1435  -21.9395   72.3054 H   0  0  0  1  0  0  0  0  0  0  0  0
  -47.3992  -23.1630   71.2482 H   0  0  0  1  0  0  0  0  0  0  0  0
  -46.5220  -21.1840   71.0740 C   0  0  0  1  0  0  0  0  0  0  0  0
  -46.9258  -20.2178   70.7716 H   0  0  0  1  0  0  0  0  0  0  0  0
  -45.9869  -21.0750   72.0173 H   0  0  0  1  0  0  0  0  0  0  0  0
  -45.4860  -21.6160   69.9960 C   0  0  0  1  0  0  0  0  0  0  0  0
  -45.9831  -21.6765   69.0278 H   0  0  0  1  0  0  0  0  0  0  0  0
  -45.0840  -22.5942   70.2597 H   0  0  0  1  0  0  0  0  0  0  0  0
  -44.2930  -20.5720   69.9030 C   0  0  0  1  0  0  0  0  0  0  0  0
  -43.4175  -20.9189   69.3542 H   0  0  0  1  0  0  0  0  0  0  0  0
  -43.9430  -20.2610   71.3950 C   0  0  0  1  0  0  0  0  0  0  0  0
  -43.2680  -21.2970   72.0370 N   0  0  0  1  0  0  0  0  0  0  0  0
  -42.9631  -22.0791   71.4753 H   0  0  0  1  0  0  0  0  0  0  0  0
  -42.9760  -21.3290   73.4430 C   0  0  0  1  0  0  0  0  0  0  0  0
  -42.1220  -21.9707   73.6596 H   0  0  0  1  0  0  0  0  0  0  0  0
  -42.7882  -20.3295   73.8353 H   0  0  0  1  0  0  0  0  0  0  0  0
  -44.2750  -21.9160   74.0000 C   0  0  0  1  0  0  0  0  0  0  0  0
  -44.6710  -23.2570   73.6750 C   0  0  0  1  0  0  0  0  0  0  0  0
  -44.0095  -23.8778   73.0890 H   0  0  0  1  0  0  0  0  0  0  0  0
  -45.9140  -23.7810   74.1090 C   0  0  0  1  0  0  0  0  0  0  0  0
  -46.2001  -24.7938   73.8667 H   0  0  0  1  0  0  0  0  0  0  0  0
  -46.7720  -22.9500   74.8660 C   0  0  0  1  0  0  0  0  0  0  0  0
  -48.0010  -23.3600   75.3380 O   0  0  0  1  0  0  0  0  0  0  0  0
  -48.4837  -22.6994   75.8401 H   0  0  0  1  0  0  0  0  0  0  0  0
  -46.3920  -21.6040   75.1900 C   0  0  0  1  0  0  0  0  0  0  0  0
  -47.0635  -20.9775   75.7583 H   0  0  0  1  0  0  0  0  0  0  0  0
  -45.1510  -21.0990   74.7710 C   0  0  0  1  0  0  0  0  0  0  0  0
  -44.8607  -20.0922   75.0329 H   0  0  0  1  0  0  0  0  0  0  0  0
  -44.2390  -19.1780   71.9410 O   0  0  0  1  0  0  0  0  0  0  0  0
  -44.8310  -19.3810   69.2410 N   0  0  0  1  0  0  0  0  0  0  0  0
  -45.3418  -18.7187   69.8071 H   0  0  0  1  0  0  0  0  0  0  0  0
  -44.6870  -19.1000   67.8890 C   0  0  0  1  0  0  0  0  0  0  0  0
  -44.0790  -19.8190   67.1090 O   0  0  0  1  0  0  0  0  0  0  0  0
  -45.4070  -17.8340   67.4640 C   0  0  0  1  0  0  0  0  0  0  0  0
  -45.5191  -17.1446   68.3008 H   0  0  0  1  0  0  0  0  0  0  0  0
  -46.7920  -18.2790   66.9880 C   0  0  0  1  0  0  0  0  0  0  0  0
  -47.9390  -17.9030   67.6910 C   0  0  0  1  0  0  0  0  0  0  0  0
  -47.8686  -17.2440   68.5437 H   0  0  0  1  0  0  0  0  0  0  0  0
  -49.1880  -18.3970   67.2700 C   0  0  0  1  0  0  0  0  0  0  0  0
  -50.0790  -18.1102   67.8088 H   0  0  0  1  0  0  0  0  0  0  0  0
  -46.9160  -19.1540   65.8530 C   0  0  0  1  0  0  0  0  0  0  0  0
  -46.0285  -19.4383   65.3071 H   0  0  0  1  0  0  0  0  0  0  0  0
  -48.1600  -19.6460   65.4390 C   0  0  0  1  0  0  0  0  0  0  0  0
  -48.2363  -20.3059   64.5875 H   0  0  0  1  0  0  0  0  0  0  0  0
  -49.3010  -19.2650   66.1510 C   0  0  0  1  0  0  0  0  0  0  0  0
  -50.2712  -19.6315   65.8496 H   0  0  0  1  0  0  0  0  0  0  0  0
  -44.6090  -16.9290   66.5050 C   0  0  0  1  0  0  0  0  0  0  0  0
  -43.2450  -16.6910   66.7460 C   0  0  0  1  0  0  0  0  0  0  0  0
  -42.7509  -17.1929   67.5647 H   0  0  0  1  0  0  0  0  0  0  0  0
  -42.5140  -15.8010   65.9270 C   0  0  0  1  0  0  0  0  0  0  0  0
  -41.4684  -15.6253   66.1325 H   0  0  0  1  0  0  0  0  0  0  0  0
  -43.1280  -15.1420   64.8500 C   0  0  0  1  0  0  0  0  0  0  0  0
  -42.5627  -14.4605   64.2316 H   0  0  0  1  0  0  0  0  0  0  0  0
  -44.4780  -15.3790   64.5890 C   0  0  0  1  0  0  0  0  0  0  0  0
  -44.9601  -14.8861   63.7577 H   0  0  0  1  0  0  0  0  0  0  0  0
  -45.2150  -16.2600   65.4070 C   0  0  0  1  0  0  0  0  0  0  0  0
  -46.2603  -16.4297   65.1951 H   0  0  0  1  0  0  0  0  0  0  0  0
  -52.6794  -16.9286   77.8119 O   0  0  0  1  0  0  0  0  0  0  0  0
  1  2  1  0  0  0  0
  1  3  1  0  0  0  0
  1  4  1  0  0  0  0
  1 14  1  0  0  0  0
  4  5  1  0  0  0  0
  4  6  1  0  0  0  0
  6  7  1  0  0  0  0
  6 92  2  0  0  0  0
  7  8  1  0  0  0  0
  7  9  1  0  0  0  0
  7 10  1  0  0  0  0
 10 11  1  0  0  0  0
 10 12  1  0  0  0  0
 10 13  1  0  0  0  0
 14 15  1  0  0  0  0
 14 16  1  0  0  0  0
 14 17  1  0  0  0  0
 17 18  1  0  0  0  0
 17 19  1  0  0  0  0
 17 20  1  0  0  0  0
 20 21  1  0  0  0  0
 20 22  1  0  0  0  0
 20 23  1  0  0  0  0
 23 24  1  0  0  0  0
 23 25  1  0  0  0  0
 25 26  2  0  0  0  0
 25 27  1  0  0  0  0
 27 28  1  0  0  0  0
 27 29  1  0  0  0  0
 29 30  1  0  0  0  0
 29 33  2  0  0  0  0
 30 31  1  0  0  0  0
 30 32  1  0  0  0  0
 33 34  1  0  0  0  0
 34 35  1  0  0  0  0
 34 36  1  0  0  0  0
 34 37  1  0  0  0  0
 37 38  1  0  0  0  0
 37 39  1  0  0  0  0
 37 40  1  0  0  0  0
 40 41  1  0  0  0  0
 40 42  1  0  0  0  0
 40 43  1  0  0  0  0
 43 44  1  0  0  0  0
 43 45  1  0  0  0  0
 43 64  1  0  0  0  0
 45 46  1  0  0  0  0
 45 63  2  0  0  0  0
 46 47  1  0  0  0  0
 46 48  1  0  0  0  0
 48 49  1  0  0  0  0
 48 50  1  0  0  0  0
 48 51  1  0  0  0  0
 51 52  1  0  0  0  0
 51 61  2  0  0  0  0
 52 53  1  0  0  0  0
 52 54  2  0  0  0  0
 54 55  1  0  0  0  0
 54 56  1  0  0  0  0
 56 57  1  0  0  0  0
 56 59  2  0  0  0  0
 57 58  1  0  0  0  0
 59 60  1  0  0  0  0
 59 61  1  0  0  0  0
 61 62  1  0  0  0  0
 64 65  1  0  0  0  0
 64 66  1  0  0  0  0
 66 67  2  0  0  0  0
 66 68  1  0  0  0  0
 68 69  1  0  0  0  0
 68 70  1  0  0  0  0
 68 81  1  0  0  0  0
 70 71  2  0  0  0  0
 70 75  1  0  0  0  0
 71 72  1  0  0  0  0
 71 73  1  0  0  0  0
 73 74  1  0  0  0  0
 73 79  2  0  0  0  0
 75 76  1  0  0  0  0
 75 77  2  0  0  0  0
 77 78  1  0  0  0  0
 77 79  1  0  0  0  0
 79 80  1  0  0  0  0
 81 82  1  0  0  0  0
 81 90  2  0  0  0  0
 82 83  1  0  0  0  0
 82 84  2  0  0  0  0
 84 85  1  0  0  0  0
 84 86  1  0  0  0  0
 86 87  1  0  0  0  0
 86 88  2  0  0  0  0
 88 89  1  0  0  0  0
 88 90  1  0  0  0  0
 90 91  1  0  0  0  0
M  END
> <ConfScore>
-0.781212 

> <SampleByParts>
10 7 6 92 4 1 14 17 20 23 25 26 27 29 30 33

$$$$
NPY1_MK299_12302016.pdb.B
  MOE2014           3D

 92 94  0  0  0  0  0  0  0  0999 V2000
  -54.3495  -16.9318   76.3453 C   0  0  0  1  0  0  0  0  0  0  0  0
  -55.2473  -17.4453   75.9896 H   0  0  0  1  0  0  0  0  0  0  0  0
  -54.4919  -16.6930   77.4044 H   0  0  0  1  0  0  0  0  0  0  0  0
  -54.1972  -15.6687   75.6399 N   0  0  0  1  0  0  0  0  0  0  0  0
  -53.4233  -15.0724   75.9077 H   0  0  0  1  0  0  0  0  0  0  0  0
  -54.9664  -15.1448   74.6364 C   0  0  0  1  0  0  0  0  0  0  0  0
  -54.5784  -13.7804   74.1000 C   0  0  0  1  0  0  0  0  0  0  0  0
  -54.8630  -13.7273   73.0436 H   0  0  0  1  0  0  0  0  0  0  0  0
  -53.4926  -13.6631   74.1735 H   0  0  0  1  0  0  0  0  0  0  0  0
  -55.2522  -12.6480   74.8542 C   0  0  0  1  0  0  0  0  0  0  0  0
  -54.9397  -11.6802   74.4502 H   0  0  0  1  0  0  0  0  0  0  0  0
  -54.9900  -12.6771   75.9156 H   0  0  0  1  0  0  0  0  0  0  0  0
  -56.3421  -12.7161   74.7759 H   0  0  0  1  0  0  0  0  0  0  0  0
  -53.1137  -17.8032   76.1597 C   0  0  0  1  0  0  0  0  0  0  0  0
  -52.2495  -17.2772   76.5795 H   0  0  0  1  0  0  0  0  0  0  0  0
  -53.2204  -18.7270   76.7425 H   0  0  0  1  0  0  0  0  0  0  0  0
  -52.8585  -18.1536   74.6867 C   0  0  0  1  0  0  0  0  0  0  0  0
  -53.7082  -18.7083   74.2886 H   0  0  0  1  0  0  0  0  0  0  0  0
  -52.7285  -17.2318   74.1195 H   0  0  0  1  0  0  0  0  0  0  0  0
  -51.5740  -19.0221   74.5455 C   0  0  0  1  0  0  0  0  0  0  0  0
  -51.6945  -19.9459   75.1114 H   0  0  0  1  0  0  0  0  0  0  0  0
  -50.7164  -18.4700   74.9298 H   0  0  0  1  0  0  0  0  0  0  0  0
  -51.3603  -19.3376   73.1330 N   0  0  0  1  0  0  0  0  0  0  0  0
  -52.0556  -18.9945   72.4858 H   0  0  0  1  0  0  0  0  0  0  0  0
  -50.2934  -20.0658   72.5771 C   0  0  0  1  0  0  0  0  0  0  0  0
  -49.3893  -20.5043   73.3078 O   0  0  0  1  0  0  0  0  0  0  0  0
  -50.4600  -20.2550   71.1740 N   0  0  0  1  0  0  0  0  0  0  0  0
  -51.2943  -19.8326   70.7923 H   0  0  0  1  0  0  0  0  0  0  0  0
  -49.6900  -20.9060   70.2590 C   0  0  0  1  0  0  0  0  0  0  0  0
  -50.2570  -20.8250   69.0000 N   0  0  0  1  0  0  0  0  0  0  0  0
  -49.8842  -21.3783   68.2417 H   0  0  0  1  0  0  0  0  0  0  0  0
  -51.0438  -20.2125   68.8389 H   0  0  0  1  0  0  0  0  0  0  0  0
  -48.6290  -21.7900   70.2920 N   0  0  0  1  0  0  0  0  0  0  0  0
  -47.7070  -22.1200   71.3230 C   0  0  0  1  0  0  0  0  0  0  0  0
  -48.1435  -21.9395   72.3054 H   0  0  0  1  0  0  0  0  0  0  0  0
  -47.3992  -23.1630   71.2482 H   0  0  0  1  0  0  0  0  0  0  0  0
  -46.5220  -21.1840   71.0740 C   0  0  0  1  0  0  0  0  0  0  0  0
  -46.9258  -20.2178   70.7716 H   0  0  0  1  0  0  0  0  0  0  0  0
  -45.9869  -21.0750   72.0173 H   0  0  0  1  0  0  0  0  0  0  0  0
  -45.4860  -21.6160   69.9960 C   0  0  0  1  0  0  0  0  0  0  0  0
  -45.9831  -21.6765   69.0278 H   0  0  0  1  0  0  0  0  0  0  0  0
  -45.0840  -22.5942   70.2597 H   0  0  0  1  0  0  0  0  0  0  0  0
  -44.2930  -20.5720   69.9030 C   0  0  0  1  0  0  0  0  0  0  0  0
  -43.4175  -20.9189   69.3542 H   0  0  0  1  0  0  0  0  0  0  0  0
  -43.9430  -20.2610   71.3950 C   0  0  0  1  0  0  0  0  0  0  0  0
  -43.2680  -21.2970   72.0370 N   0  0  0  1  0  0  0  0  0  0  0  0
  -42.9631  -22.0791   71.4753 H   0  0  0  1  0  0  0  0  0  0  0  0
  -42.9760  -21.3290   73.4430 C   0  0  0  1  0  0  0  0  0  0  0  0
  -42.1220  -21.9707   73.6596 H   0  0  0  1  0  0  0  0  0  0  0  0
  -42.7882  -20.3295   73.8353 H   0  0  0  1  0  0  0  0  0  0  0  0
  -44.2750  -21.9160   74.0000 C   0  0  0  1  0  0  0  0  0  0  0  0
  -44.6710  -23.2570   73.6750 C   0  0  0  1  0  0  0  0  0  0  0  0
  -44.0095  -23.8778   73.0890 H   0  0  0  1  0  0  0  0  0  0  0  0
  -45.9140  -23.7810   74.1090 C   0  0  0  1  0  0  0  0  0  0  0  0
  -46.2001  -24.7938   73.8667 H   0  0  0  1  0  0  0  0  0  0  0  0
  -46.7720  -22.9500   74.8660 C   0  0  0  1  0  0  0  0  0  0  0  0
  -48.0010  -23.3600   75.3380 O   0  0  0  1  0  0  0  0  0  0  0  0
  -48.4837  -22.6994   75.8401 H   0  0  0  1  0  0  0  0  0  0  0  0
  -46.3920  -21.6040   75.1900 C   0  0  0  1  0  0  0  0  0  0  0  0
  -47.0635  -20.9775   75.7583 H   0  0  0  1  0  0  0  0  0  0  0  0
  -45.1510  -21.0990   74.7710 C   0  0  0  1  0  0  0  0  0  0  0  0
  -44.8607  -20.0922   75.0329 H   0  0  0  1  0  0  0  0  0  0  0  0
  -44.2390  -19.1780   71.9410 O   0  0  0  1  0  0  0  0  0  0  0  0
  -44.8310  -19.3810   69.2410 N   0  0  0  1  0  0  0  0  0  0  0  0
  -45.3418  -18.7187   69.8071 H   0  0  0  1  0  0  0  0  0  0  0  0
  -44.6870  -19.1000   67.8890 C   0  0  0  1  0  0  0  0  0  0  0  0
  -44.0790  -19.8190   67.1090 O   0  0  0  1  0  0  0  0  0  0  0  0
  -45.4070  -17.8340   67.4640 C   0  0  0  1  0  0  0  0  0  0  0  0
  -45.5191  -17.1446   68.3008 H   0  0  0  1  0  0  0  0  0  0  0  0
  -46.7920  -18.2790   66.9880 C   0  0  0  1  0  0  0  0  0  0  0  0
  -47.9390  -17.9030   67.6910 C   0  0  0  1  0  0  0  0  0  0  0  0
  -47.8686  -17.2440   68.5437 H   0  0  0  1  0  0  0  0  0  0  0  0
  -49.1880  -18.3970   67.2700 C   0  0  0  1  0  0  0  0  0  0  0  0
  -50.0790  -18.1102   67.8088 H   0  0  0  1  0  0  0  0  0  0  0  0
  -46.9160  -19.1540   65.8530 C   0  0  0  1  0  0  0  0  0  0  0  0
  -46.0285  -19.4383   65.3071 H   0  0  0  1  0  0  0  0  0  0  0  0
  -48.1600  -19.6460   65.4390 C   0  0  0  1  0  0  0  0  0  0  0  0
  -48.2363  -20.3059   64.5875 H   0  0  0  1  0  0  0  0  0  0  0  0
  -49.3010  -19.2650   66.1510 C   0  0  0  1  0  0  0  0  0  0  0  0
  -50.2712  -19.6315   65.8496 H   0  0  0  1  0  0  0  0  0  0  0  0
  -44.6090  -16.9290   66.5050 C   0  0  0  1  0  0  0  0  0  0  0  0
  -43.2450  -16.6910   66.7460 C   0  0  0  1  0  0  0  0  0  0  0  0
  -42.7509  -17.1929   67.5647 H   0  0  0  1  0  0  0  0  0  0  0  0
  -42.5140  -15.8010   65.9270 C   0  0  0  1  0  0  0  0  0  0  0  0
  -41.4684  -15.6253   66.1325 H   0  0  0  1  0  0  0  0  0  0  0  0
  -43.1280  -15.1420   64.8500 C   0  0  0  1  0  0  0  0  0  0  0  0
  -42.5627  -14.4605   64.2316 H   0  0  0  1  0  0  0  0  0  0  0  0
  -44.4780  -15.3790   64.5890 C   0  0  0  1  0  0  0  0  0  0  0  0
  -44.9601  -14.8861   63.7577 H   0  0  0  1  0  0  0  0  0  0  0  0
  -45.2150  -16.2600   65.4070 C   0  0  0  1  0  0  0  0  0  0  0  0
  -46.2603  -16.4297   65.1951 H   0  0  0  1  0  0  0  0  0  0  0  0
  -55.9188  -15.7954   74.2083 O   0  0  0  1  0  0  0  0  0  0  0  0
  1  2  1  0  0  0  0
  1  3  1  0  0  0  0
  1  4  1  0  0  0  0
  1 14  1  0  0  0  0
  4  5  1  0  0  0  0
  4  6  1  0  0  0  0
  6  7  1  0  0  0  0
  6 92  2  0  0  0  0
  7  8  1  0  0  0  0
  7  9  1  0  0  0  0
  7 10  1  0  0  0  0
 10 11  1  0  0  0  0
 10 12  1  0  0  0  0
 10 13  1  0  0  0  0
 14 15  1  0  0  0  0
 14 16  1  0  0  0  0
 14 17  1  0  0  0  0
 17 18  1  0  0  0  0
 17 19  1  0  0  0  0
 17 20  1  0  0  0  0
 20 21  1  0  0  0  0
 20 22  1  0  0  0  0
 20 23  1  0  0  0  0
 23 24  1  0  0  0  0
 23 25  1  0  0  0  0
 25 26  2  0  0  0  0
 25 27  1  0  0  0  0
 27 28  1  0  0  0  0
 27 29  1  0  0  0  0
 29 30  1  0  0  0  0
 29 33  2  0  0  0  0
 30 31  1  0  0  0  0
 30 32  1  0  0  0  0
 33 34  1  0  0  0  0
 34 35  1  0  0  0  0
 34 36  1  0  0  0  0
 34 37  1  0  0  0  0
 37 38  1  0  0  0  0
 37 39  1  0  0  0  0
 37 40  1  0  0  0  0
 40 41  1  0  0  0  0
 40 42  1  0  0  0  0
 40 43  1  0  0  0  0
 43 44  1  0  0  0  0
 43 45  1  0  0  0  0
 43 64  1  0  0  0  0
 45 46  1  0  0  0  0
 45 63  2  0  0  0  0
 46 47  1  0  0  0  0
 46 48  1  0  0  0  0
 48 49  1  0  0  0  0
 48 50  1  0  0  0  0
 48 51  1  0  0  0  0
 51 52  1  0  0  0  0
 51 61  2  0  0  0  0
 52 53  1  0  0  0  0
 52 54  2  0  0  0  0
 54 55  1  0  0  0  0
 54 56  1  0  0  0  0
 56 57  1  0  0  0  0
 56 59  2  0  0  0  0
 57 58  1  0  0  0  0
 59 60  1  0  0  0  0
 59 61  1  0  0  0  0
 61 62  1  0  0  0  0
 64 65  1  0  0  0  0
 64 66  1  0  0  0  0
 66 67  2  0  0  0  0
 66 68  1  0  0  0  0
 68 69  1  0  0  0  0
 68 70  1  0  0  0  0
 68 81  1  0  0  0  0
 70 71  2  0  0  0  0
 70 75  1  0  0  0  0
 71 72  1  0  0  0  0
 71 73  1  0  0  0  0
 73 74  1  0  0  0  0
 73 79  2  0  0  0  0
 75 76  1  0  0  0  0
 75 77  2  0  0  0  0
 77 78  1  0  0  0  0
 77 79  1  0  0  0  0
 79 80  1  0  0  0  0
 81 82  1  0  0  0  0
 81 90  2  0  0  0  0
 82 83  1  0  0  0  0
 82 84  2  0  0  0  0
 84 85  1  0  0  0  0
 84 86  1  0  0  0  0
 86 87  1  0  0  0  0
 86 88  2  0  0  0  0
 88 89  1  0  0  0  0
 88 90  1  0  0  0  0
 90 91  1  0  0  0  0
M  END
> <ConfScore>
-0.750596 

> <SampleByParts>
10 7 6 92 4 1 14 17 20 23 25 26 27 29 30 33

$$$$
NPY1_MK299_12302016.pdb.B
  MOE2014           3D

 92 94  0  0  0  0  0  0  0  0999 V2000
  -54.5146  -17.2352   76.4036 C   0  0  0  1  0  0  0  0  0  0  0  0
  -55.3730  -17.7453   75.9572 H   0  0  0  1  0  0  0  0  0  0  0  0
  -54.7165  -17.1014   77.4715 H   0  0  0  1  0  0  0  0  0  0  0  0
  -54.3803  -15.9072   75.8253 N   0  0  0  1  0  0  0  0  0  0  0  0
  -53.6547  -15.3053   76.1962 H   0  0  0  1  0  0  0  0  0  0  0  0
  -55.1099  -15.3266   74.8233 C   0  0  0  1  0  0  0  0  0  0  0  0
  -54.7465  -13.9084   74.4277 C   0  0  0  1  0  0  0  0  0  0  0  0
  -54.7817  -13.8313   73.3356 H   0  0  0  1  0  0  0  0  0  0  0  0
  -53.7249  -13.6959   74.7581 H   0  0  0  1  0  0  0  0  0  0  0  0
  -55.6871  -12.8797   75.0295 C   0  0  0  1  0  0  0  0  0  0  0  0
  -55.3878  -11.8692   74.7348 H   0  0  0  1  0  0  0  0  0  0  0  0
  -55.6771  -12.9352   76.1218 H   0  0  0  1  0  0  0  0  0  0  0  0
  -56.7165  -13.0435   74.6946 H   0  0  0  1  0  0  0  0  0  0  0  0
  -53.2370  -18.0405   76.2024 C   0  0  0  1  0  0  0  0  0  0  0  0
  -52.4002  -17.4811   76.6344 H   0  0  0  1  0  0  0  0  0  0  0  0
  -53.2984  -18.9801   76.7660 H   0  0  0  1  0  0  0  0  0  0  0  0
  -52.9638  -18.3474   74.7230 C   0  0  0  1  0  0  0  0  0  0  0  0
  -53.7761  -18.9502   74.3168 H   0  0  0  1  0  0  0  0  0  0  0  0
  -52.8968  -17.4094   74.1719 H   0  0  0  1  0  0  0  0  0  0  0  0
  -51.6251  -19.1265   74.5642 C   0  0  0  1  0  0  0  0  0  0  0  0
  -51.6824  -20.0660   75.1139 H   0  0  0  1  0  0  0  0  0  0  0  0
  -50.8047  -18.5255   74.9564 H   0  0  0  1  0  0  0  0  0  0  0  0
  -51.3952  -19.4025   73.1459 N   0  0  0  1  0  0  0  0  0  0  0  0
  -52.1062  -19.0811   72.5046 H   0  0  0  1  0  0  0  0  0  0  0  0
  -50.2934  -20.0658   72.5771 C   0  0  0  1  0  0  0  0  0  0  0  0
  -49.3604  -20.4573   73.2980 O   0  0  0  1  0  0  0  0  0  0  0  0
  -50.4600  -20.2550   71.1740 N   0  0  0  1  0  0  0  0  0  0  0  0
  -51.2943  -19.8326   70.7923 H   0  0  0  1  0  0  0  0  0  0  0  0
  -49.6900  -20.9060   70.2590 C   0  0  0  1  0  0  0  0  0  0  0  0
  -50.2570  -20.8250   69.0000 N   0  0  0  1  0  0  0  0  0  0  0  0
  -49.8842  -21.3783   68.2417 H   0  0  0  1  0  0  0  0  0  0  0  0
  -51.0438  -20.2125   68.8389 H   0  0  0  1  0  0  0  0  0  0  0  0
  -48.6290  -21.7900   70.2920 N   0  0  0  1  0  0  0  0  0  0  0  0
  -47.7070  -22.1200   71.3230 C   0  0  0  1  0  0  0  0  0  0  0  0
  -48.1435  -21.9395   72.3054 H   0  0  0  1  0  0  0  0  0  0  0  0
  -47.3992  -23.1630   71.2482 H   0  0  0  1  0  0  0  0  0  0  0  0
  -46.5220  -21.1840   71.0740 C   0  0  0  1  0  0  0  0  0  0  0  0
  -46.9258  -20.2178   70.7716 H   0  0  0  1  0  0  0  0  0  0  0  0
  -45.9869  -21.0750   72.0173 H   0  0  0  1  0  0  0  0  0  0  0  0
  -45.4860  -21.6160   69.9960 C   0  0  0  1  0  0  0  0  0  0  0  0
  -45.9831  -21.6765   69.0278 H   0  0  0  1  0  0  0  0  0  0  0  0
  -45.0840  -22.5942   70.2597 H   0  0  0  1  0  0  0  0  0  0  0  0
  -44.2930  -20.5720   69.9030 C   0  0  0  1  0  0  0  0  0  0  0  0
  -43.4175  -20.9189   69.3542 H   0  0  0  1  0  0  0  0  0  0  0  0
  -43.9430  -20.2610   71.3950 C   0  0  0  1  0  0  0  0  0  0  0  0
  -43.2680  -21.2970   72.0370 N   0  0  0  1  0  0  0  0  0  0  0  0
  -42.9631  -22.0791   71.4753 H   0  0  0  1  0  0  0  0  0  0  0  0
  -42.9760  -21.3290   73.4430 C   0  0  0  1  0  0  0  0  0  0  0  0
  -42.1220  -21.9707   73.6596 H   0  0  0  1  0  0  0  0  0  0  0  0
  -42.7882  -20.3295   73.8353 H   0  0  0  1  0  0  0  0  0  0  0  0
  -44.2750  -21.9160   74.0000 C   0  0  0  1  0  0  0  0  0  0  0  0
  -44.6710  -23.2570   73.6750 C   0  0  0  1  0  0  0  0  0  0  0  0
  -44.0095  -23.8778   73.0890 H   0  0  0  1  0  0  0  0  0  0  0  0
  -45.9140  -23.7810   74.1090 C   0  0  0  1  0  0  0  0  0  0  0  0
  -46.2001  -24.7938   73.8667 H   0  0  0  1  0  0  0  0  0  0  0  0
  -46.7720  -22.9500   74.8660 C   0  0  0  1  0  0  0  0  0  0  0  0
  -48.0010  -23.3600   75.3380 O   0  0  0  1  0  0  0  0  0  0  0  0
  -48.4837  -22.6994   75.8401 H   0  0  0  1  0  0  0  0  0  0  0  0
  -46.3920  -21.6040   75.1900 C   0  0  0  1  0  0  0  0  0  0  0  0
  -47.0635  -20.9775   75.7583 H   0  0  0  1  0  0  0  0  0  0  0  0
  -45.1510  -21.0990   74.7710 C   0  0  0  1  0  0  0  0  0  0  0  0
  -44.8607  -20.0922   75.0329 H   0  0  0  1  0  0  0  0  0  0  0  0
  -44.2390  -19.1780   71.9410 O   0  0  0  1  0  0  0  0  0  0  0  0
  -44.8310  -19.3810   69.2410 N   0  0  0  1  0  0  0  0  0  0  0  0
  -45.3418  -18.7187   69.8071 H   0  0  0  1  0  0  0  0  0  0  0  0
  -44.6870  -19.1000   67.8890 C   0  0  0  1  0  0  0  0  0  0  0  0
  -44.0790  -19.8190   67.1090 O   0  0  0  1  0  0  0  0  0  0  0  0
  -45.4070  -17.8340   67.4640 C   0  0  0  1  0  0  0  0  0  0  0  0
  -45.5191  -17.1446   68.3008 H   0  0  0  1  0  0  0  0  0  0  0  0
  -46.7920  -18.2790   66.9880 C   0  0  0  1  0  0  0  0  0  0  0  0
  -47.9390  -17.9030   67.6910 C   0  0  0  1  0  0  0  0  0  0  0  0
  -47.8686  -17.2440   68.5437 H   0  0  0  1  0  0  0  0  0  0  0  0
  -49.1880  -18.3970   67.2700 C   0  0  0  1  0  0  0  0  0  0  0  0
  -50.0790  -18.1102   67.8088 H   0  0  0  1  0  0  0  0  0  0  0  0
  -46.9160  -19.1540   65.8530 C   0  0  0  1  0  0  0  0  0  0  0  0
  -46.0285  -19.4383   65.3071 H   0  0  0  1  0  0  0  0  0  0  0  0
  -48.1600  -19.6460   65.4390 C   0  0  0  1  0  0  0  0  0  0  0  0
  -48.2363  -20.3059   64.5875 H   0  0  0  1  0  0  0  0  0  0  0  0
  -49.3010  -19.2650   66.1510 C   0  0  0  1  0  0  0  0  0  0  0  0
  -50.2712  -19.6315   65.8496 H   0  0  0  1  0  0  0  0  0  0  0  0
  -44.6090  -16.9290   66.5050 C   0  0  0  1  0  0  0  0  0  0  0  0
  -43.2450  -16.6910   66.7460 C   0  0  0  1  0  0  0  0  0  0  0  0
  -42.7509  -17.1929   67.5647 H   0  0  0  1  0  0  0  0  0  0  0  0
  -42.5140  -15.8010   65.9270 C   0  0  0  1  0  0  0  0  0  0  0  0
  -41.4684  -15.6253   66.1325 H   0  0  0  1  0  0  0  0  0  0  0  0
  -43.1280  -15.1420   64.8500 C   0  0  0  1  0  0  0  0  0  0  0  0
  -42.5627  -14.4605   64.2316 H   0  0  0  1  0  0  0  0  0  0  0  0
  -44.4780  -15.3790   64.5890 C   0  0  0  1  0  0  0  0  0  0  0  0
  -44.9601  -14.8861   63.7577 H   0  0  0  1  0  0  0  0  0  0  0  0
  -45.2150  -16.2600   65.4070 C   0  0  0  1  0  0  0  0  0  0  0  0
  -46.2603  -16.4297   65.1951 H   0  0  0  1  0  0  0  0  0  0  0  0
  -56.0084  -15.9714   74.2843 O   0  0  0  1  0  0  0  0  0  0  0  0
  1  2  1  0  0  0  0
  1  3  1  0  0  0  0
  1  4  1  0  0  0  0
  1 14  1  0  0  0  0
  4  5  1  0  0  0  0
  4  6  1  0  0  0  0
  6  7  1  0  0  0  0
  6 92  2  0  0  0  0
  7  8  1  0  0  0  0
  7  9  1  0  0  0  0
  7 10  1  0  0  0  0
 10 11  1  0  0  0  0
 10 12  1  0  0  0  0
 10 13  1  0  0  0  0
 14 15  1  0  0  0  0
 14 16  1  0  0  0  0
 14 17  1  0  0  0  0
 17 18  1  0  0  0  0
 17 19  1  0  0  0  0
 17 20  1  0  0  0  0
 20 21  1  0  0  0  0
 20 22  1  0  0  0  0
 20 23  1  0  0  0  0
 23 24  1  0  0  0  0
 23 25  1  0  0  0  0
 25 26  2  0  0  0  0
 25 27  1  0  0  0  0
 27 28  1  0  0  0  0
 27 29  1  0  0  0  0
 29 30  1  0  0  0  0
 29 33  2  0  0  0  0
 30 31  1  0  0  0  0
 30 32  1  0  0  0  0
 33 34  1  0  0  0  0
 34 35  1  0  0  0  0
 34 36  1  0  0  0  0
 34 37  1  0  0  0  0
 37 38  1  0  0  0  0
 37 39  1  0  0  0  0
 37 40  1  0  0  0  0
 40 41  1  0  0  0  0
 40 42  1  0  0  0  0
 40 43  1  0  0  0  0
 43 44  1  0  0  0  0
 43 45  1  0  0  0  0
 43 64  1  0  0  0  0
 45 46  1  0  0  0  0
 45 63  2  0  0  0  0
 46 47  1  0  0  0  0
 46 48  1  0  0  0  0
 48 49  1  0  0  0  0
 48 50  1  0  0  0  0
 48 51  1  0  0  0  0
 51 52  1  0  0  0  0
 51 61  2  0  0  0  0
 52 53  1  0  0  0  0
 52 54  2  0  0  0  0
 54 55  1  0  0  0  0
 54 56  1  0  0  0  0
 56 57  1  0  0  0  0
 56 59  2  0  0  0  0
 57 58  1  0  0  0  0
 59 60  1  0  0  0  0
 59 61  1  0  0  0  0
 61 62  1  0  0  0  0
 64 65  1  0  0  0  0
 64 66  1  0  0  0  0
 66 67  2  0  0  0  0
 66 68  1  0  0  0  0
 68 69  1  0  0  0  0
 68 70  1  0  0  0  0
 68 81  1  0  0  0  0
 70 71  2  0  0  0  0
 70 75  1  0  0  0  0
 71 72  1  0  0  0  0
 71 73  1  0  0  0  0
 73 74  1  0  0  0  0
 73 79  2  0  0  0  0
 75 76  1  0  0  0  0
 75 77  2  0  0  0  0
 77 78  1  0  0  0  0
 77 79  1  0  0  0  0
 79 80  1  0  0  0  0
 81 82  1  0  0  0  0
 81 90  2  0  0  0  0
 82 83  1  0  0  0  0
 82 84  2  0  0  0  0
 84 85  1  0  0  0  0
 84 86  1  0  0  0  0
 86 87  1  0  0  0  0
 86 88  2  0  0  0  0
 88 89  1  0  0  0  0
 88 90  1  0  0  0  0
 90 91  1  0  0  0  0
M  END
> <ConfScore>
-0.750596 

> <SampleByParts>
10 7 6 92 4 1 14 17 20 23 25 26 27 29 30 33

$$$$
NPY1_MK299_12302016.pdb.B
  MOE2014           3D

 92 94  0  0  0  0  0  0  0  0999 V2000
  -54.7481  -17.4342   76.3212 C   0  0  0  1  0  0  0  0  0  0  0  0
  -55.5924  -17.9118   75.8160 H   0  0  0  1  0  0  0  0  0  0  0  0
  -55.0002  -17.3327   77.3820 H   0  0  0  1  0  0  0  0  0  0  0  0
  -54.5615  -16.0903   75.7967 N   0  0  0  1  0  0  0  0  0  0  0  0
  -53.8443  -15.5157   76.2233 H   0  0  0  1  0  0  0  0  0  0  0  0
  -55.2299  -15.4619   74.7810 C   0  0  0  1  0  0  0  0  0  0  0  0
  -54.8539  -14.0231   74.4838 C   0  0  0  1  0  0  0  0  0  0  0  0
  -54.8018  -13.8937   73.3974 H   0  0  0  1  0  0  0  0  0  0  0  0
  -53.8651  -13.8177   74.9058 H   0  0  0  1  0  0  0  0  0  0  0  0
  -55.8530  -13.0330   75.0553 C   0  0  0  1  0  0  0  0  0  0  0  0
  -55.5439  -12.0068   74.8340 H   0  0  0  1  0  0  0  0  0  0  0  0
  -55.9305  -13.1410   76.1409 H   0  0  0  1  0  0  0  0  0  0  0  0
  -56.8499  -13.1896   74.6306 H   0  0  0  1  0  0  0  0  0  0  0  0
  -53.4769  -18.2573   76.1548 C   0  0  0  1  0  0  0  0  0  0  0  0
  -52.6727  -17.7758   76.7215 H   0  0  0  1  0  0  0  0  0  0  0  0
  -53.6154  -19.2485   76.6050 H   0  0  0  1  0  0  0  0  0  0  0  0
  -53.0689  -18.4156   74.6830 C   0  0  0  1  0  0  0  0  0  0  0  0
  -53.9064  -18.8144   74.1106 H   0  0  0  1  0  0  0  0  0  0  0  0
  -52.7884  -17.4404   74.2851 H   0  0  0  1  0  0  0  0  0  0  0  0
  -51.8574  -19.3849   74.5525 C   0  0  0  1  0  0  0  0  0  0  0  0
  -52.1284  -20.3630   74.9500 H   0  0  0  1  0  0  0  0  0  0  0  0
  -51.0105  -18.9874   75.1119 H   0  0  0  1  0  0  0  0  0  0  0  0
  -51.4949  -19.5133   73.1409 N   0  0  0  1  0  0  0  0  0  0  0  0
  -52.0605  -18.9966   72.4829 H   0  0  0  1  0  0  0  0  0  0  0  0
  -50.4456  -20.2771   72.5993 C   0  0  0  1  0  0  0  0  0  0  0  0
  -49.6833  -20.9104   73.3486 O   0  0  0  1  0  0  0  0  0  0  0  0
  -50.4600  -20.2550   71.1740 N   0  0  0  1  0  0  0  0  0  0  0  0
  -51.1638  -19.6515   70.7732 H   0  0  0  1  0  0  0  0  0  0  0  0
  -49.6900  -20.9060   70.2590 C   0  0  0  1  0  0  0  0  0  0  0  0
  -50.2570  -20.8250   69.0000 N   0  0  0  1  0  0  0  0  0  0  0  0
  -49.8842  -21.3783   68.2417 H   0  0  0  1  0  0  0  0  0  0  0  0
  -51.0438  -20.2125   68.8389 H   0  0  0  1  0  0  0  0  0  0  0  0
  -48.6290  -21.7900   70.2920 N   0  0  0  1  0  0  0  0  0  0  0  0
  -47.7070  -22.1200   71.3230 C   0  0  0  1  0  0  0  0  0  0  0  0
  -48.1435  -21.9395   72.3054 H   0  0  0  1  0  0  0  0  0  0  0  0
  -47.3992  -23.1630   71.2482 H   0  0  0  1  0  0  0  0  0  0  0  0
  -46.5220  -21.1840   71.0740 C   0  0  0  1  0  0  0  0  0  0  0  0
  -46.9258  -20.2178   70.7716 H   0  0  0  1  0  0  0  0  0  0  0  0
  -45.9869  -21.0750   72.0173 H   0  0  0  1  0  0  0  0  0  0  0  0
  -45.4860  -21.6160   69.9960 C   0  0  0  1  0  0  0  0  0  0  0  0
  -45.9831  -21.6765   69.0278 H   0  0  0  1  0  0  0  0  0  0  0  0
  -45.0840  -22.5942   70.2597 H   0  0  0  1  0  0  0  0  0  0  0  0
  -44.2930  -20.5720   69.9030 C   0  0  0  1  0  0  0  0  0  0  0  0
  -43.4175  -20.9189   69.3542 H   0  0  0  1  0  0  0  0  0  0  0  0
  -43.9430  -20.2610   71.3950 C   0  0  0  1  0  0  0  0  0  0  0  0
  -43.2680  -21.2970   72.0370 N   0  0  0  1  0  0  0  0  0  0  0  0
  -42.9631  -22.0791   71.4753 H   0  0  0  1  0  0  0  0  0  0  0  0
  -42.9760  -21.3290   73.4430 C   0  0  0  1  0  0  0  0  0  0  0  0
  -42.1220  -21.9707   73.6596 H   0  0  0  1  0  0  0  0  0  0  0  0
  -42.7882  -20.3295   73.8353 H   0  0  0  1  0  0  0  0  0  0  0  0
  -44.2750  -21.9160   74.0000 C   0  0  0  1  0  0  0  0  0  0  0  0
  -44.6710  -23.2570   73.6750 C   0  0  0  1  0  0  0  0  0  0  0  0
  -44.0095  -23.8778   73.0890 H   0  0  0  1  0  0  0  0  0  0  0  0
  -45.9140  -23.7810   74.1090 C   0  0  0  1  0  0  0  0  0  0  0  0
  -46.2001  -24.7938   73.8667 H   0  0  0  1  0  0  0  0  0  0  0  0
  -46.7720  -22.9500   74.8660 C   0  0  0  1  0  0  0  0  0  0  0  0
  -48.0010  -23.3600   75.3380 O   0  0  0  1  0  0  0  0  0  0  0  0
  -48.4837  -22.6994   75.8401 H   0  0  0  1  0  0  0  0  0  0  0  0
  -46.3920  -21.6040   75.1900 C   0  0  0  1  0  0  0  0  0  0  0  0
  -47.0635  -20.9775   75.7583 H   0  0  0  1  0  0  0  0  0  0  0  0
  -45.1510  -21.0990   74.7710 C   0  0  0  1  0  0  0  0  0  0  0  0
  -44.8607  -20.0922   75.0329 H   0  0  0  1  0  0  0  0  0  0  0  0
  -44.2390  -19.1780   71.9410 O   0  0  0  1  0  0  0  0  0  0  0  0
  -44.8310  -19.3810   69.2410 N   0  0  0  1  0  0  0  0  0  0  0  0
  -45.3418  -18.7187   69.8071 H   0  0  0  1  0  0  0  0  0  0  0  0
  -44.6870  -19.1000   67.8890 C   0  0  0  1  0  0  0  0  0  0  0  0
  -44.0790  -19.8190   67.1090 O   0  0  0  1  0  0  0  0  0  0  0  0
  -45.4070  -17.8340   67.4640 C   0  0  0  1  0  0  0  0  0  0  0  0
  -45.5191  -17.1446   68.3008 H   0  0  0  1  0  0  0  0  0  0  0  0
  -46.7920  -18.2790   66.9880 C   0  0  0  1  0  0  0  0  0  0  0  0
  -47.9390  -17.9030   67.6910 C   0  0  0  1  0  0  0  0  0  0  0  0
  -47.8686  -17.2440   68.5437 H   0  0  0  1  0  0  0  0  0  0  0  0
  -49.1880  -18.3970   67.2700 C   0  0  0  1  0  0  0  0  0  0  0  0
  -50.0790  -18.1102   67.8088 H   0  0  0  1  0  0  0  0  0  0  0  0
  -46.9160  -19.1540   65.8530 C   0  0  0  1  0  0  0  0  0  0  0  0
  -46.0285  -19.4383   65.3071 H   0  0  0  1  0  0  0  0  0  0  0  0
  -48.1600  -19.6460   65.4390 C   0  0  0  1  0  0  0  0  0  0  0  0
  -48.2363  -20.3059   64.5875 H   0  0  0  1  0  0  0  0  0  0  0  0
  -49.3010  -19.2650   66.1510 C   0  0  0  1  0  0  0  0  0  0  0  0
  -50.2712  -19.6315   65.8496 H   0  0  0  1  0  0  0  0  0  0  0  0
  -44.6090  -16.9290   66.5050 C   0  0  0  1  0  0  0  0  0  0  0  0
  -43.2450  -16.6910   66.7460 C   0  0  0  1  0  0  0  0  0  0  0  0
  -42.7509  -17.1929   67.5647 H   0  0  0  1  0  0  0  0  0  0  0  0
  -42.5140  -15.8010   65.9270 C   0  0  0  1  0  0  0  0  0  0  0  0
  -41.4684  -15.6253   66.1325 H   0  0  0  1  0  0  0  0  0  0  0  0
  -43.1280  -15.1420   64.8500 C   0  0  0  1  0  0  0  0  0  0  0  0
  -42.5627  -14.4605   64.2316 H   0  0  0  1  0  0  0  0  0  0  0  0
  -44.4780  -15.3790   64.5890 C   0  0  0  1  0  0  0  0  0  0  0  0
  -44.9601  -14.8861   63.7577 H   0  0  0  1  0  0  0  0  0  0  0  0
  -45.2150  -16.2600   65.4070 C   0  0  0  1  0  0  0  0  0  0  0  0
  -46.2603  -16.4297   65.1951 H   0  0  0  1  0  0  0  0  0  0  0  0
  -56.0863  -16.0822   74.1523 O   0  0  0  1  0  0  0  0  0  0  0  0
  1  2  1  0  0  0  0
  1  3  1  0  0  0  0
  1  4  1  0  0  0  0
  1 14  1  0  0  0  0
  4  5  1  0  0  0  0
  4  6  1  0  0  0  0
  6  7  1  0  0  0  0
  6 92  2  0  0  0  0
  7  8  1  0  0  0  0
  7  9  1  0  0  0  0
  7 10  1  0  0  0  0
 10 11  1  0  0  0  0
 10 12  1  0  0  0  0
 10 13  1  0  0  0  0
 14 15  1  0  0  0  0
 14 16  1  0  0  0  0
 14 17  1  0  0  0  0
 17 18  1  0  0  0  0
 17 19  1  0  0  0  0
 17 20  1  0  0  0  0
 20 21  1  0  0  0  0
 20 22  1  0  0  0  0
 20 23  1  0  0  0  0
 23 24  1  0  0  0  0
 23 25  1  0  0  0  0
 25 26  2  0  0  0  0
 25 27  1  0  0  0  0
 27 28  1  0  0  0  0
 27 29  1  0  0  0  0
 29 30  1  0  0  0  0
 29 33  2  0  0  0  0
 30 31  1  0  0  0  0
 30 32  1  0  0  0  0
 33 34  1  0  0  0  0
 34 35  1  0  0  0  0
 34 36  1  0  0  0  0
 34 37  1  0  0  0  0
 37 38  1  0  0  0  0
 37 39  1  0  0  0  0
 37 40  1  0  0  0  0
 40 41  1  0  0  0  0
 40 42  1  0  0  0  0
 40 43  1  0  0  0  0
 43 44  1  0  0  0  0
 43 45  1  0  0  0  0
 43 64  1  0  0  0  0
 45 46  1  0  0  0  0
 45 63  2  0  0  0  0
 46 47  1  0  0  0  0
 46 48  1  0  0  0  0
 48 49  1  0  0  0  0
 48 50  1  0  0  0  0
 48 51  1  0  0  0  0
 51 52  1  0  0  0  0
 51 61  2  0  0  0  0
 52 53  1  0  0  0  0
 52 54  2  0  0  0  0
 54 55  1  0  0  0  0
 54 56  1  0  0  0  0
 56 57  1  0  0  0  0
 56 59  2  0  0  0  0
 57 58  1  0  0  0  0
 59 60  1  0  0  0  0
 59 61  1  0  0  0  0
 61 62  1  0  0  0  0
 64 65  1  0  0  0  0
 64 66  1  0  0  0  0
 66 67  2  0  0  0  0
 66 68  1  0  0  0  0
 68 69  1  0  0  0  0
 68 70  1  0  0  0  0
 68 81  1  0  0  0  0
 70 71  2  0  0  0  0
 70 75  1  0  0  0  0
 71 72  1  0  0  0  0
 71 73  1  0  0  0  0
 73 74  1  0  0  0  0
 73 79  2  0  0  0  0
 75 76  1  0  0  0  0
 75 77  2  0  0  0  0
 77 78  1  0  0  0  0
 77 79  1  0  0  0  0
 79 80  1  0  0  0  0
 81 82  1  0  0  0  0
 81 90  2  0  0  0  0
 82 83  1  0  0  0  0
 82 84  2  0  0  0  0
 84 85  1  0  0  0  0
 84 86  1  0  0  0  0
 86 87  1  0  0  0  0
 86 88  2  0  0  0  0
 88 89  1  0  0  0  0
 88 90  1  0  0  0  0
 90 91  1  0  0  0  0
M  END
> <ConfScore>
-0.750596 

> <SampleByParts>
10 7 6 92 4 1 14 17 20 23 25 26 27 29 30 33

$$$$
NPY1_MK299_12302016.pdb.B
  MOE2014           3D

 92 94  0  0  0  0  0  0  0  0999 V2000
  -54.5289  -17.1348   76.3298 C   0  0  0  1  0  0  0  0  0  0  0  0
  -55.4131  -17.5580   75.8447 H   0  0  0  1  0  0  0  0  0  0  0  0
  -54.7567  -16.9991   77.3923 H   0  0  0  1  0  0  0  0  0  0  0  0
  -54.2545  -15.8160   75.7807 N   0  0  0  1  0  0  0  0  0  0  0  0
  -53.4915  -15.2881   76.1876 H   0  0  0  1  0  0  0  0  0  0  0  0
  -54.8917  -15.1568   74.7646 C   0  0  0  1  0  0  0  0  0  0  0  0
  -54.3877  -13.7717   74.4076 C   0  0  0  1  0  0  0  0  0  0  0  0
  -54.6030  -13.5842   73.3501 H   0  0  0  1  0  0  0  0  0  0  0  0
  -53.3033  -13.7377   74.5525 H   0  0  0  1  0  0  0  0  0  0  0  0
  -55.0350  -12.6850   75.2473 C   0  0  0  1  0  0  0  0  0  0  0  0
  -54.6389  -11.7025   74.9728 H   0  0  0  1  0  0  0  0  0  0  0  0
  -54.8407  -12.8477   76.3113 H   0  0  0  1  0  0  0  0  0  0  0  0
  -56.1201  -12.6694   75.1030 H   0  0  0  1  0  0  0  0  0  0  0  0
  -53.3228  -18.0497   76.1588 C   0  0  0  1  0  0  0  0  0  0  0  0
  -52.4775  -17.6188   76.7059 H   0  0  0  1  0  0  0  0  0  0  0  0
  -53.5252  -19.0214   76.6271 H   0  0  0  1  0  0  0  0  0  0  0  0
  -52.9500  -18.2596   74.6841 C   0  0  0  1  0  0  0  0  0  0  0  0
  -53.8080  -18.6562   74.1413 H   0  0  0  1  0  0  0  0  0  0  0  0
  -52.6574  -17.3027   74.2519 H   0  0  0  1  0  0  0  0  0  0  0  0
  -51.7626  -19.2587   74.5569 C   0  0  0  1  0  0  0  0  0  0  0  0
  -52.0396  -20.2132   75.0044 H   0  0  0  1  0  0  0  0  0  0  0  0
  -50.8903  -18.8558   75.0715 H   0  0  0  1  0  0  0  0  0  0  0  0
  -51.4490  -19.4543   73.1414 N   0  0  0  1  0  0  0  0  0  0  0  0
  -52.0155  -18.9419   72.4807 H   0  0  0  1  0  0  0  0  0  0  0  0
  -50.4456  -20.2771   72.5993 C   0  0  0  1  0  0  0  0  0  0  0  0
  -49.7201  -20.9525   73.3483 O   0  0  0  1  0  0  0  0  0  0  0  0
  -50.4600  -20.2550   71.1740 N   0  0  0  1  0  0  0  0  0  0  0  0
  -51.1638  -19.6515   70.7732 H   0  0  0  1  0  0  0  0  0  0  0  0
  -49.6900  -20.9060   70.2590 C   0  0  0  1  0  0  0  0  0  0  0  0
  -50.2570  -20.8250   69.0000 N   0  0  0  1  0  0  0  0  0  0  0  0
  -49.8842  -21.3783   68.2417 H   0  0  0  1  0  0  0  0  0  0  0  0
  -51.0438  -20.2125   68.8389 H   0  0  0  1  0  0  0  0  0  0  0  0
  -48.6290  -21.7900   70.2920 N   0  0  0  1  0  0  0  0  0  0  0  0
  -47.7070  -22.1200   71.3230 C   0  0  0  1  0  0  0  0  0  0  0  0
  -48.1435  -21.9395   72.3054 H   0  0  0  1  0  0  0  0  0  0  0  0
  -47.3992  -23.1630   71.2482 H   0  0  0  1  0  0  0  0  0  0  0  0
  -46.5220  -21.1840   71.0740 C   0  0  0  1  0  0  0  0  0  0  0  0
  -46.9258  -20.2178   70.7716 H   0  0  0  1  0  0  0  0  0  0  0  0
  -45.9869  -21.0750   72.0173 H   0  0  0  1  0  0  0  0  0  0  0  0
  -45.4860  -21.6160   69.9960 C   0  0  0  1  0  0  0  0  0  0  0  0
  -45.9831  -21.6765   69.0278 H   0  0  0  1  0  0  0  0  0  0  0  0
  -45.0840  -22.5942   70.2597 H   0  0  0  1  0  0  0  0  0  0  0  0
  -44.2930  -20.5720   69.9030 C   0  0  0  1  0  0  0  0  0  0  0  0
  -43.4175  -20.9189   69.3542 H   0  0  0  1  0  0  0  0  0  0  0  0
  -43.9430  -20.2610   71.3950 C   0  0  0  1  0  0  0  0  0  0  0  0
  -43.2680  -21.2970   72.0370 N   0  0  0  1  0  0  0  0  0  0  0  0
  -42.9631  -22.0791   71.4753 H   0  0  0  1  0  0  0  0  0  0  0  0
  -42.9760  -21.3290   73.4430 C   0  0  0  1  0  0  0  0  0  0  0  0
  -42.1220  -21.9707   73.6596 H   0  0  0  1  0  0  0  0  0  0  0  0
  -42.7882  -20.3295   73.8353 H   0  0  0  1  0  0  0  0  0  0  0  0
  -44.2750  -21.9160   74.0000 C   0  0  0  1  0  0  0  0  0  0  0  0
  -44.6710  -23.2570   73.6750 C   0  0  0  1  0  0  0  0  0  0  0  0
  -44.0095  -23.8778   73.0890 H   0  0  0  1  0  0  0  0  0  0  0  0
  -45.9140  -23.7810   74.1090 C   0  0  0  1  0  0  0  0  0  0  0  0
  -46.2001  -24.7938   73.8667 H   0  0  0  1  0  0  0  0  0  0  0  0
  -46.7720  -22.9500   74.8660 C   0  0  0  1  0  0  0  0  0  0  0  0
  -48.0010  -23.3600   75.3380 O   0  0  0  1  0  0  0  0  0  0  0  0
  -48.4837  -22.6994   75.8401 H   0  0  0  1  0  0  0  0  0  0  0  0
  -46.3920  -21.6040   75.1900 C   0  0  0  1  0  0  0  0  0  0  0  0
  -47.0635  -20.9775   75.7583 H   0  0  0  1  0  0  0  0  0  0  0  0
  -45.1510  -21.0990   74.7710 C   0  0  0  1  0  0  0  0  0  0  0  0
  -44.8607  -20.0922   75.0329 H   0  0  0  1  0  0  0  0  0  0  0  0
  -44.2390  -19.1780   71.9410 O   0  0  0  1  0  0  0  0  0  0  0  0
  -44.8310  -19.3810   69.2410 N   0  0  0  1  0  0  0  0  0  0  0  0
  -45.3418  -18.7187   69.8071 H   0  0  0  1  0  0  0  0  0  0  0  0
  -44.6870  -19.1000   67.8890 C   0  0  0  1  0  0  0  0  0  0  0  0
  -44.0790  -19.8190   67.1090 O   0  0  0  1  0  0  0  0  0  0  0  0
  -45.4070  -17.8340   67.4640 C   0  0  0  1  0  0  0  0  0  0  0  0
  -45.5191  -17.1446   68.3008 H   0  0  0  1  0  0  0  0  0  0  0  0
  -46.7920  -18.2790   66.9880 C   0  0  0  1  0  0  0  0  0  0  0  0
  -47.9390  -17.9030   67.6910 C   0  0  0  1  0  0  0  0  0  0  0  0
  -47.8686  -17.2440   68.5437 H   0  0  0  1  0  0  0  0  0  0  0  0
  -49.1880  -18.3970   67.2700 C   0  0  0  1  0  0  0  0  0  0  0  0
  -50.0790  -18.1102   67.8088 H   0  0  0  1  0  0  0  0  0  0  0  0
  -46.9160  -19.1540   65.8530 C   0  0  0  1  0  0  0  0  0  0  0  0
  -46.0285  -19.4383   65.3071 H   0  0  0  1  0  0  0  0  0  0  0  0
  -48.1600  -19.6460   65.4390 C   0  0  0  1  0  0  0  0  0  0  0  0
  -48.2363  -20.3059   64.5875 H   0  0  0  1  0  0  0  0  0  0  0  0
  -49.3010  -19.2650   66.1510 C   0  0  0  1  0  0  0  0  0  0  0  0
  -50.2712  -19.6315   65.8496 H   0  0  0  1  0  0  0  0  0  0  0  0
  -44.6090  -16.9290   66.5050 C   0  0  0  1  0  0  0  0  0  0  0  0
  -43.2450  -16.6910   66.7460 C   0  0  0  1  0  0  0  0  0  0  0  0
  -42.7509  -17.1929   67.5647 H   0  0  0  1  0  0  0  0  0  0  0  0
  -42.5140  -15.8010   65.9270 C   0  0  0  1  0  0  0  0  0  0  0  0
  -41.4684  -15.6253   66.1325 H   0  0  0  1  0  0  0  0  0  0  0  0
  -43.1280  -15.1420   64.8500 C   0  0  0  1  0  0  0  0  0  0  0  0
  -42.5627  -14.4605   64.2316 H   0  0  0  1  0  0  0  0  0  0  0  0
  -44.4780  -15.3790   64.5890 C   0  0  0  1  0  0  0  0  0  0  0  0
  -44.9601  -14.8861   63.7577 H   0  0  0  1  0  0  0  0  0  0  0  0
  -45.2150  -16.2600   65.4070 C   0  0  0  1  0  0  0  0  0  0  0  0
  -46.2603  -16.4297   65.1951 H   0  0  0  1  0  0  0  0  0  0  0  0
  -55.8245  -15.7091   74.1830 O   0  0  0  1  0  0  0  0  0  0  0  0
  1  2  1  0  0  0  0
  1  3  1  0  0  0  0
  1  4  1  0  0  0  0
  1 14  1  0  0  0  0
  4  5  1  0  0  0  0
  4  6  1  0  0  0  0
  6  7  1  0  0  0  0
  6 92  2  0  0  0  0
  7  8  1  0  0  0  0
  7  9  1  0  0  0  0
  7 10  1  0  0  0  0
 10 11  1  0  0  0  0
 10 12  1  0  0  0  0
 10 13  1  0  0  0  0
 14 15  1  0  0  0  0
 14 16  1  0  0  0  0
 14 17  1  0  0  0  0
 17 18  1  0  0  0  0
 17 19  1  0  0  0  0
 17 20  1  0  0  0  0
 20 21  1  0  0  0  0
 20 22  1  0  0  0  0
 20 23  1  0  0  0  0
 23 24  1  0  0  0  0
 23 25  1  0  0  0  0
 25 26  2  0  0  0  0
 25 27  1  0  0  0  0
 27 28  1  0  0  0  0
 27 29  1  0  0  0  0
 29 30  1  0  0  0  0
 29 33  2  0  0  0  0
 30 31  1  0  0  0  0
 30 32  1  0  0  0  0
 33 34  1  0  0  0  0
 34 35  1  0  0  0  0
 34 36  1  0  0  0  0
 34 37  1  0  0  0  0
 37 38  1  0  0  0  0
 37 39  1  0  0  0  0
 37 40  1  0  0  0  0
 40 41  1  0  0  0  0
 40 42  1  0  0  0  0
 40 43  1  0  0  0  0
 43 44  1  0  0  0  0
 43 45  1  0  0  0  0
 43 64  1  0  0  0  0
 45 46  1  0  0  0  0
 45 63  2  0  0  0  0
 46 47  1  0  0  0  0
 46 48  1  0  0  0  0
 48 49  1  0  0  0  0
 48 50  1  0  0  0  0
 48 51  1  0  0  0  0
 51 52  1  0  0  0  0
 51 61  2  0  0  0  0
 52 53  1  0  0  0  0
 52 54  2  0  0  0  0
 54 55  1  0  0  0  0
 54 56  1  0  0  0  0
 56 57  1  0  0  0  0
 56 59  2  0  0  0  0
 57 58  1  0  0  0  0
 59 60  1  0  0  0  0
 59 61  1  0  0  0  0
 61 62  1  0  0  0  0
 64 65  1  0  0  0  0
 64 66  1  0  0  0  0
 66 67  2  0  0  0  0
 66 68  1  0  0  0  0
 68 69  1  0  0  0  0
 68 70  1  0  0  0  0
 68 81  1  0  0  0  0
 70 71  2  0  0  0  0
 70 75  1  0  0  0  0
 71 72  1  0  0  0  0
 71 73  1  0  0  0  0
 73 74  1  0  0  0  0
 73 79  2  0  0  0  0
 75 76  1  0  0  0  0
 75 77  2  0  0  0  0
 77 78  1  0  0  0  0
 77 79  1  0  0  0  0
 79 80  1  0  0  0  0
 81 82  1  0  0  0  0
 81 90  2  0  0  0  0
 82 83  1  0  0  0  0
 82 84  2  0  0  0  0
 84 85  1  0  0  0  0
 84 86  1  0  0  0  0
 86 87  1  0  0  0  0
 86 88  2  0  0  0  0
 88 89  1  0  0  0  0
 88 90  1  0  0  0  0
 90 91  1  0  0  0  0
M  END
> <ConfScore>
-0.750596 

> <SampleByParts>
10 7 6 92 4 1 14 17 20 23 25 26 27 29 30 33

$$$$
NPY1_MK299_12302016.pdb.B
  MOE2014           3D

 92 94  0  0  0  0  0  0  0  0999 V2000
  -54.7364  -16.5572   75.7507 C   0  0  0  1  0  0  0  0  0  0  0  0
  -54.6649  -17.4460   76.3841 H   0  0  0  1  0  0  0  0  0  0  0  0
  -53.9380  -15.8669   76.0427 H   0  0  0  1  0  0  0  0  0  0  0  0
  -55.9990  -15.8793   76.0005 N   0  0  0  1  0  0  0  0  0  0  0  0
  -56.6444  -15.7894   75.2248 H   0  0  0  1  0  0  0  0  0  0  0  0
  -56.4634  -15.3249   77.1624 C   0  0  0  1  0  0  0  0  0  0  0  0
  -57.8495  -14.7102   77.1367 C   0  0  0  1  0  0  0  0  0  0  0  0
  -58.2948  -14.8125   78.1322 H   0  0  0  1  0  0  0  0  0  0  0  0
  -58.4701  -15.2581   76.4206 H   0  0  0  1  0  0  0  0  0  0  0  0
  -57.8254  -13.2419   76.7511 C   0  0  0  1  0  0  0  0  0  0  0  0
  -58.8412  -12.8354   76.7296 H   0  0  0  1  0  0  0  0  0  0  0  0
  -57.3811  -13.1068   75.7608 H   0  0  0  1  0  0  0  0  0  0  0  0
  -57.2372  -12.6566   77.4653 H   0  0  0  1  0  0  0  0  0  0  0  0
  -54.6064  -16.9255   74.2781 C   0  0  0  1  0  0  0  0  0  0  0  0
  -55.5164  -17.4503   73.9679 H   0  0  0  1  0  0  0  0  0  0  0  0
  -54.5591  -16.0129   73.6703 H   0  0  0  1  0  0  0  0  0  0  0  0
  -53.3708  -17.7928   73.9970 C   0  0  0  1  0  0  0  0  0  0  0  0
  -52.4687  -17.2478   74.2750 H   0  0  0  1  0  0  0  0  0  0  0  0
  -53.4379  -18.7082   74.5849 H   0  0  0  1  0  0  0  0  0  0  0  0
  -53.2949  -18.1636   72.4867 C   0  0  0  1  0  0  0  0  0  0  0  0
  -53.2293  -17.2534   71.8905 H   0  0  0  1  0  0  0  0  0  0  0  0
  -54.1879  -18.7204   72.2026 H   0  0  0  1  0  0  0  0  0  0  0  0
  -52.1091  -18.9881   72.2536 N   0  0  0  1  0  0  0  0  0  0  0  0
  -51.5283  -19.1775   73.0578 H   0  0  0  1  0  0  0  0  0  0  0  0
  -51.6888  -19.5461   71.0331 C   0  0  0  1  0  0  0  0  0  0  0  0
  -52.3416  -19.3420   69.9959 O   0  0  0  1  0  0  0  0  0  0  0  0
  -50.4600  -20.2550   71.1740 N   0  0  0  1  0  0  0  0  0  0  0  0
  -50.0976  -20.2784   72.1165 H   0  0  0  1  0  0  0  0  0  0  0  0
  -49.6900  -20.9060   70.2590 C   0  0  0  1  0  0  0  0  0  0  0  0
  -50.2570  -20.8250   69.0000 N   0  0  0  1  0  0  0  0  0  0  0  0
  -49.8842  -21.3783   68.2417 H   0  0  0  1  0  0  0  0  0  0  0  0
  -51.0438  -20.2125   68.8389 H   0  0  0  1  0  0  0  0  0  0  0  0
  -48.6290  -21.7900   70.2920 N   0  0  0  1  0  0  0  0  0  0  0  0
  -47.7070  -22.1200   71.3230 C   0  0  0  1  0  0  0  0  0  0  0  0
  -48.1435  -21.9395   72.3054 H   0  0  0  1  0  0  0  0  0  0  0  0
  -47.3992  -23.1630   71.2482 H   0  0  0  1  0  0  0  0  0  0  0  0
  -46.5220  -21.1840   71.0740 C   0  0  0  1  0  0  0  0  0  0  0  0
  -46.9258  -20.2178   70.7716 H   0  0  0  1  0  0  0  0  0  0  0  0
  -45.9869  -21.0750   72.0173 H   0  0  0  1  0  0  0  0  0  0  0  0
  -45.4860  -21.6160   69.9960 C   0  0  0  1  0  0  0  0  0  0  0  0
  -45.9831  -21.6765   69.0278 H   0  0  0  1  0  0  0  0  0  0  0  0
  -45.0840  -22.5942   70.2597 H   0  0  0  1  0  0  0  0  0  0  0  0
  -44.2930  -20.5720   69.9030 C   0  0  0  1  0  0  0  0  0  0  0  0
  -43.4175  -20.9189   69.3542 H   0  0  0  1  0  0  0  0  0  0  0  0
  -43.9430  -20.2610   71.3950 C   0  0  0  1  0  0  0  0  0  0  0  0
  -43.2680  -21.2970   72.0370 N   0  0  0  1  0  0  0  0  0  0  0  0
  -42.9631  -22.0791   71.4753 H   0  0  0  1  0  0  0  0  0  0  0  0
  -42.9760  -21.3290   73.4430 C   0  0  0  1  0  0  0  0  0  0  0  0
  -42.1220  -21.9707   73.6596 H   0  0  0  1  0  0  0  0  0  0  0  0
  -42.7882  -20.3295   73.8353 H   0  0  0  1  0  0  0  0  0  0  0  0
  -44.2750  -21.9160   74.0000 C   0  0  0  1  0  0  0  0  0  0  0  0
  -44.6710  -23.2570   73.6750 C   0  0  0  1  0  0  0  0  0  0  0  0
  -44.0095  -23.8778   73.0890 H   0  0  0  1  0  0  0  0  0  0  0  0
  -45.9140  -23.7810   74.1090 C   0  0  0  1  0  0  0  0  0  0  0  0
  -46.2001  -24.7938   73.8667 H   0  0  0  1  0  0  0  0  0  0  0  0
  -46.7720  -22.9500   74.8660 C   0  0  0  1  0  0  0  0  0  0  0  0
  -48.0010  -23.3600   75.3380 O   0  0  0  1  0  0  0  0  0  0  0  0
  -48.4837  -22.6994   75.8401 H   0  0  0  1  0  0  0  0  0  0  0  0
  -46.3920  -21.6040   75.1900 C   0  0  0  1  0  0  0  0  0  0  0  0
  -47.0635  -20.9775   75.7583 H   0  0  0  1  0  0  0  0  0  0  0  0
  -45.1510  -21.0990   74.7710 C   0  0  0  1  0  0  0  0  0  0  0  0
  -44.8607  -20.0922   75.0329 H   0  0  0  1  0  0  0  0  0  0  0  0
  -44.2390  -19.1780   71.9410 O   0  0  0  1  0  0  0  0  0  0  0  0
  -44.8310  -19.3810   69.2410 N   0  0  0  1  0  0  0  0  0  0  0  0
  -45.3418  -18.7187   69.8071 H   0  0  0  1  0  0  0  0  0  0  0  0
  -44.6870  -19.1000   67.8890 C   0  0  0  1  0  0  0  0  0  0  0  0
  -44.0790  -19.8190   67.1090 O   0  0  0  1  0  0  0  0  0  0  0  0
  -45.4070  -17.8340   67.4640 C   0  0  0  1  0  0  0  0  0  0  0  0
  -45.5191  -17.1446   68.3008 H   0  0  0  1  0  0  0  0  0  0  0  0
  -46.7920  -18.2790   66.9880 C   0  0  0  1  0  0  0  0  0  0  0  0
  -47.9390  -17.9030   67.6910 C   0  0  0  1  0  0  0  0  0  0  0  0
  -47.8686  -17.2440   68.5437 H   0  0  0  1  0  0  0  0  0  0  0  0
  -49.1880  -18.3970   67.2700 C   0  0  0  1  0  0  0  0  0  0  0  0
  -50.0790  -18.1102   67.8088 H   0  0  0  1  0  0  0  0  0  0  0  0
  -46.9160  -19.1540   65.8530 C   0  0  0  1  0  0  0  0  0  0  0  0
  -46.0285  -19.4383   65.3071 H   0  0  0  1  0  0  0  0  0  0  0  0
  -48.1600  -19.6460   65.4390 C   0  0  0  1  0  0  0  0  0  0  0  0
  -48.2363  -20.3059   64.5875 H   0  0  0  1  0  0  0  0  0  0  0  0
  -49.3010  -19.2650   66.1510 C   0  0  0  1  0  0  0  0  0  0  0  0
  -50.2712  -19.6315   65.8496 H   0  0  0  1  0  0  0  0  0  0  0  0
  -44.6090  -16.9290   66.5050 C   0  0  0  1  0  0  0  0  0  0  0  0
  -43.2450  -16.6910   66.7460 C   0  0  0  1  0  0  0  0  0  0  0  0
  -42.7509  -17.1929   67.5647 H   0  0  0  1  0  0  0  0  0  0  0  0
  -42.5140  -15.8010   65.9270 C   0  0  0  1  0  0  0  0  0  0  0  0
  -41.4684  -15.6253   66.1325 H   0  0  0  1  0  0  0  0  0  0  0  0
  -43.1280  -15.1420   64.8500 C   0  0  0  1  0  0  0  0  0  0  0  0
  -42.5627  -14.4605   64.2316 H   0  0  0  1  0  0  0  0  0  0  0  0
  -44.4780  -15.3790   64.5890 C   0  0  0  1  0  0  0  0  0  0  0  0
  -44.9601  -14.8861   63.7577 H   0  0  0  1  0  0  0  0  0  0  0  0
  -45.2150  -16.2600   65.4070 C   0  0  0  1  0  0  0  0  0  0  0  0
  -46.2603  -16.4297   65.1951 H   0  0  0  1  0  0  0  0  0  0  0  0
  -55.7551  -15.3572   78.1677 O   0  0  0  1  0  0  0  0  0  0  0  0
  1  2  1  0  0  0  0
  1  3  1  0  0  0  0
  1  4  1  0  0  0  0
  1 14  1  0  0  0  0
  4  5  1  0  0  0  0
  4  6  1  0  0  0  0
  6  7  1  0  0  0  0
  6 92  2  0  0  0  0
  7  8  1  0  0  0  0
  7  9  1  0  0  0  0
  7 10  1  0  0  0  0
 10 11  1  0  0  0  0
 10 12  1  0  0  0  0
 10 13  1  0  0  0  0
 14 15  1  0  0  0  0
 14 16  1  0  0  0  0
 14 17  1  0  0  0  0
 17 18  1  0  0  0  0
 17 19  1  0  0  0  0
 17 20  1  0  0  0  0
 20 21  1  0  0  0  0
 20 22  1  0  0  0  0
 20 23  1  0  0  0  0
 23 24  1  0  0  0  0
 23 25  1  0  0  0  0
 25 26  2  0  0  0  0
 25 27  1  0  0  0  0
 27 28  1  0  0  0  0
 27 29  1  0  0  0  0
 29 30  1  0  0  0  0
 29 33  2  0  0  0  0
 30 31  1  0  0  0  0
 30 32  1  0  0  0  0
 33 34  1  0  0  0  0
 34 35  1  0  0  0  0
 34 36  1  0  0  0  0
 34 37  1  0  0  0  0
 37 38  1  0  0  0  0
 37 39  1  0  0  0  0
 37 40  1  0  0  0  0
 40 41  1  0  0  0  0
 40 42  1  0  0  0  0
 40 43  1  0  0  0  0
 43 44  1  0  0  0  0
 43 45  1  0  0  0  0
 43 64  1  0  0  0  0
 45 46  1  0  0  0  0
 45 63  2  0  0  0  0
 46 47  1  0  0  0  0
 46 48  1  0  0  0  0
 48 49  1  0  0  0  0
 48 50  1  0  0  0  0
 48 51  1  0  0  0  0
 51 52  1  0  0  0  0
 51 61  2  0  0  0  0
 52 53  1  0  0  0  0
 52 54  2  0  0  0  0
 54 55  1  0  0  0  0
 54 56  1  0  0  0  0
 56 57  1  0  0  0  0
 56 59  2  0  0  0  0
 57 58  1  0  0  0  0
 59 60  1  0  0  0  0
 59 61  1  0  0  0  0
 61 62  1  0  0  0  0
 64 65  1  0  0  0  0
 64 66  1  0  0  0  0
 66 67  2  0  0  0  0
 66 68  1  0  0  0  0
 68 69  1  0  0  0  0
 68 70  1  0  0  0  0
 68 81  1  0  0  0  0
 70 71  2  0  0  0  0
 70 75  1  0  0  0  0
 71 72  1  0  0  0  0
 71 73  1  0  0  0  0
 73 74  1  0  0  0  0
 73 79  2  0  0  0  0
 75 76  1  0  0  0  0
 75 77  2  0  0  0  0
 77 78  1  0  0  0  0
 77 79  1  0  0  0  0
 79 80  1  0  0  0  0
 81 82  1  0  0  0  0
 81 90  2  0  0  0  0
 82 83  1  0  0  0  0
 82 84  2  0  0  0  0
 84 85  1  0  0  0  0
 84 86  1  0  0  0  0
 86 87  1  0  0  0  0
 86 88  2  0  0  0  0
 88 89  1  0  0  0  0
 88 90  1  0  0  0  0
 90 91  1  0  0  0  0
M  END
> <ConfScore>
-0.747478 

> <SampleByParts>
10 7 6 92 4 1 14 17 20 23 25 26 27 29 30 33

$$$$
NPY1_MK299_12302016.pdb.B
  MOE2014           3D

 92 94  0  0  0  0  0  0  0  0999 V2000
  -54.8898  -16.8158   75.8022 C   0  0  0  1  0  0  0  0  0  0  0  0
  -55.0421  -17.7540   76.3434 H   0  0  0  1  0  0  0  0  0  0  0  0
  -54.0097  -16.3192   76.2243 H   0  0  0  1  0  0  0  0  0  0  0  0
  -56.0248  -15.9336   76.0246 N   0  0  0  1  0  0  0  0  0  0  0  0
  -56.5199  -15.5918   75.2094 H   0  0  0  1  0  0  0  0  0  0  0  0
  -56.5431  -15.4787   77.2068 C   0  0  0  1  0  0  0  0  0  0  0  0
  -57.7410  -14.5517   77.1324 C   0  0  0  1  0  0  0  0  0  0  0  0
  -58.4516  -14.8368   77.9157 H   0  0  0  1  0  0  0  0  0  0  0  0
  -58.2282  -14.6747   76.1600 H   0  0  0  1  0  0  0  0  0  0  0  0
  -57.3581  -13.0939   77.3148 C   0  0  0  1  0  0  0  0  0  0  0  0
  -58.2429  -12.4540   77.2420 H   0  0  0  1  0  0  0  0  0  0  0  0
  -56.6442  -12.7801   76.5479 H   0  0  0  1  0  0  0  0  0  0  0  0
  -56.8946  -12.9277   78.2927 H   0  0  0  1  0  0  0  0  0  0  0  0
  -54.6913  -17.0713   74.3135 C   0  0  0  1  0  0  0  0  0  0  0  0
  -55.6129  -17.5020   73.9074 H   0  0  0  1  0  0  0  0  0  0  0  0
  -54.5443  -16.1180   73.7900 H   0  0  0  1  0  0  0  0  0  0  0  0
  -53.5013  -17.9996   74.0310 C   0  0  0  1  0  0  0  0  0  0  0  0
  -52.5896  -17.5621   74.4377 H   0  0  0  1  0  0  0  0  0  0  0  0
  -53.6834  -18.9647   74.5038 H   0  0  0  1  0  0  0  0  0  0  0  0
  -53.3236  -18.2103   72.4986 C   0  0  0  1  0  0  0  0  0  0  0  0
  -53.2135  -17.2432   72.0078 H   0  0  0  1  0  0  0  0  0  0  0  0
  -54.1973  -18.7238   72.0973 H   0  0  0  1  0  0  0  0  0  0  0  0
  -52.1280  -19.0191   72.2603 N   0  0  0  1  0  0  0  0  0  0  0  0
  -51.5786  -19.2591   73.0731 H   0  0  0  1  0  0  0  0  0  0  0  0
  -51.6594  -19.4991   71.0244 C   0  0  0  1  0  0  0  0  0  0  0  0
  -52.2504  -19.1989   69.9736 O   0  0  0  1  0  0  0  0  0  0  0  0
  -50.4600  -20.2550   71.1740 N   0  0  0  1  0  0  0  0  0  0  0  0
  -50.1228  -20.3188   72.1239 H   0  0  0  1  0  0  0  0  0  0  0  0
  -49.6900  -20.9060   70.2590 C   0  0  0  1  0  0  0  0  0  0  0  0
  -50.2570  -20.8250   69.0000 N   0  0  0  1  0  0  0  0  0  0  0  0
  -49.8842  -21.3783   68.2417 H   0  0  0  1  0  0  0  0  0  0  0  0
  -51.0438  -20.2125   68.8389 H   0  0  0  1  0  0  0  0  0  0  0  0
  -48.6290  -21.7900   70.2920 N   0  0  0  1  0  0  0  0  0  0  0  0
  -47.7070  -22.1200   71.3230 C   0  0  0  1  0  0  0  0  0  0  0  0
  -48.1435  -21.9395   72.3054 H   0  0  0  1  0  0  0  0  0  0  0  0
  -47.3992  -23.1630   71.2482 H   0  0  0  1  0  0  0  0  0  0  0  0
  -46.5220  -21.1840   71.0740 C   0  0  0  1  0  0  0  0  0  0  0  0
  -46.9258  -20.2178   70.7716 H   0  0  0  1  0  0  0  0  0  0  0  0
  -45.9869  -21.0750   72.0173 H   0  0  0  1  0  0  0  0  0  0  0  0
  -45.4860  -21.6160   69.9960 C   0  0  0  1  0  0  0  0  0  0  0  0
  -45.9831  -21.6765   69.0278 H   0  0  0  1  0  0  0  0  0  0  0  0
  -45.0840  -22.5942   70.2597 H   0  0  0  1  0  0  0  0  0  0  0  0
  -44.2930  -20.5720   69.9030 C   0  0  0  1  0  0  0  0  0  0  0  0
  -43.4175  -20.9189   69.3542 H   0  0  0  1  0  0  0  0  0  0  0  0
  -43.9430  -20.2610   71.3950 C   0  0  0  1  0  0  0  0  0  0  0  0
  -43.2680  -21.2970   72.0370 N   0  0  0  1  0  0  0  0  0  0  0  0
  -42.9631  -22.0791   71.4753 H   0  0  0  1  0  0  0  0  0  0  0  0
  -42.9760  -21.3290   73.4430 C   0  0  0  1  0  0  0  0  0  0  0  0
  -42.1220  -21.9707   73.6596 H   0  0  0  1  0  0  0  0  0  0  0  0
  -42.7882  -20.3295   73.8353 H   0  0  0  1  0  0  0  0  0  0  0  0
  -44.2750  -21.9160   74.0000 C   0  0  0  1  0  0  0  0  0  0  0  0
  -44.6710  -23.2570   73.6750 C   0  0  0  1  0  0  0  0  0  0  0  0
  -44.0095  -23.8778   73.0890 H   0  0  0  1  0  0  0  0  0  0  0  0
  -45.9140  -23.7810   74.1090 C   0  0  0  1  0  0  0  0  0  0  0  0
  -46.2001  -24.7938   73.8667 H   0  0  0  1  0  0  0  0  0  0  0  0
  -46.7720  -22.9500   74.8660 C   0  0  0  1  0  0  0  0  0  0  0  0
  -48.0010  -23.3600   75.3380 O   0  0  0  1  0  0  0  0  0  0  0  0
  -48.4837  -22.6994   75.8401 H   0  0  0  1  0  0  0  0  0  0  0  0
  -46.3920  -21.6040   75.1900 C   0  0  0  1  0  0  0  0  0  0  0  0
  -47.0635  -20.9775   75.7583 H   0  0  0  1  0  0  0  0  0  0  0  0
  -45.1510  -21.0990   74.7710 C   0  0  0  1  0  0  0  0  0  0  0  0
  -44.8607  -20.0922   75.0329 H   0  0  0  1  0  0  0  0  0  0  0  0
  -44.2390  -19.1780   71.9410 O   0  0  0  1  0  0  0  0  0  0  0  0
  -44.8310  -19.3810   69.2410 N   0  0  0  1  0  0  0  0  0  0  0  0
  -45.3418  -18.7187   69.8071 H   0  0  0  1  0  0  0  0  0  0  0  0
  -44.6870  -19.1000   67.8890 C   0  0  0  1  0  0  0  0  0  0  0  0
  -44.0790  -19.8190   67.1090 O   0  0  0  1  0  0  0  0  0  0  0  0
  -45.4070  -17.8340   67.4640 C   0  0  0  1  0  0  0  0  0  0  0  0
  -45.5191  -17.1446   68.3008 H   0  0  0  1  0  0  0  0  0  0  0  0
  -46.7920  -18.2790   66.9880 C   0  0  0  1  0  0  0  0  0  0  0  0
  -47.9390  -17.9030   67.6910 C   0  0  0  1  0  0  0  0  0  0  0  0
  -47.8686  -17.2440   68.5437 H   0  0  0  1  0  0  0  0  0  0  0  0
  -49.1880  -18.3970   67.2700 C   0  0  0  1  0  0  0  0  0  0  0  0
  -50.0790  -18.1102   67.8088 H   0  0  0  1  0  0  0  0  0  0  0  0
  -46.9160  -19.1540   65.8530 C   0  0  0  1  0  0  0  0  0  0  0  0
  -46.0285  -19.4383   65.3071 H   0  0  0  1  0  0  0  0  0  0  0  0
  -48.1600  -19.6460   65.4390 C   0  0  0  1  0  0  0  0  0  0  0  0
  -48.2363  -20.3059   64.5875 H   0  0  0  1  0  0  0  0  0  0  0  0
  -49.3010  -19.2650   66.1510 C   0  0  0  1  0  0  0  0  0  0  0  0
  -50.2712  -19.6315   65.8496 H   0  0  0  1  0  0  0  0  0  0  0  0
  -44.6090  -16.9290   66.5050 C   0  0  0  1  0  0  0  0  0  0  0  0
  -43.2450  -16.6910   66.7460 C   0  0  0  1  0  0  0  0  0  0  0  0
  -42.7509  -17.1929   67.5647 H   0  0  0  1  0  0  0  0  0  0  0  0
  -42.5140  -15.8010   65.9270 C   0  0  0  1  0  0  0  0  0  0  0  0
  -41.4684  -15.6253   66.1325 H   0  0  0  1  0  0  0  0  0  0  0  0
  -43.1280  -15.1420   64.8500 C   0  0  0  1  0  0  0  0  0  0  0  0
  -42.5627  -14.4605   64.2316 H   0  0  0  1  0  0  0  0  0  0  0  0
  -44.4780  -15.3790   64.5890 C   0  0  0  1  0  0  0  0  0  0  0  0
  -44.9601  -14.8861   63.7577 H   0  0  0  1  0  0  0  0  0  0  0  0
  -45.2150  -16.2600   65.4070 C   0  0  0  1  0  0  0  0  0  0  0  0
  -46.2603  -16.4297   65.1951 H   0  0  0  1  0  0  0  0  0  0  0  0
  -56.0330  -15.8430   78.2653 O   0  0  0  1  0  0  0  0  0  0  0  0
  1  2  1  0  0  0  0
  1  3  1  0  0  0  0
  1  4  1  0  0  0  0
  1 14  1  0  0  0  0
  4  5  1  0  0  0  0
  4  6  1  0  0  0  0
  6  7  1  0  0  0  0
  6 92  2  0  0  0  0
  7  8  1  0  0  0  0
  7  9  1  0  0  0  0
  7 10  1  0  0  0  0
 10 11  1  0  0  0  0
 10 12  1  0  0  0  0
 10 13  1  0  0  0  0
 14 15  1  0  0  0  0
 14 16  1  0  0  0  0
 14 17  1  0  0  0  0
 17 18  1  0  0  0  0
 17 19  1  0  0  0  0
 17 20  1  0  0  0  0
 20 21  1  0  0  0  0
 20 22  1  0  0  0  0
 20 23  1  0  0  0  0
 23 24  1  0  0  0  0
 23 25  1  0  0  0  0
 25 26  2  0  0  0  0
 25 27  1  0  0  0  0
 27 28  1  0  0  0  0
 27 29  1  0  0  0  0
 29 30  1  0  0  0  0
 29 33  2  0  0  0  0
 30 31  1  0  0  0  0
 30 32  1  0  0  0  0
 33 34  1  0  0  0  0
 34 35  1  0  0  0  0
 34 36  1  0  0  0  0
 34 37  1  0  0  0  0
 37 38  1  0  0  0  0
 37 39  1  0  0  0  0
 37 40  1  0  0  0  0
 40 41  1  0  0  0  0
 40 42  1  0  0  0  0
 40 43  1  0  0  0  0
 43 44  1  0  0  0  0
 43 45  1  0  0  0  0
 43 64  1  0  0  0  0
 45 46  1  0  0  0  0
 45 63  2  0  0  0  0
 46 47  1  0  0  0  0
 46 48  1  0  0  0  0
 48 49  1  0  0  0  0
 48 50  1  0  0  0  0
 48 51  1  0  0  0  0
 51 52  1  0  0  0  0
 51 61  2  0  0  0  0
 52 53  1  0  0  0  0
 52 54  2  0  0  0  0
 54 55  1  0  0  0  0
 54 56  1  0  0  0  0
 56 57  1  0  0  0  0
 56 59  2  0  0  0  0
 57 58  1  0  0  0  0
 59 60  1  0  0  0  0
 59 61  1  0  0  0  0
 61 62  1  0  0  0  0
 64 65  1  0  0  0  0
 64 66  1  0  0  0  0
 66 67  2  0  0  0  0
 66 68  1  0  0  0  0
 68 69  1  0  0  0  0
 68 70  1  0  0  0  0
 68 81  1  0  0  0  0
 70 71  2  0  0  0  0
 70 75  1  0  0  0  0
 71 72  1  0  0  0  0
 71 73  1  0  0  0  0
 73 74  1  0  0  0  0
 73 79  2  0  0  0  0
 75 76  1  0  0  0  0
 75 77  2  0  0  0  0
 77 78  1  0  0  0  0
 77 79  1  0  0  0  0
 79 80  1  0  0  0  0
 81 82  1  0  0  0  0
 81 90  2  0  0  0  0
 82 83  1  0  0  0  0
 82 84  2  0  0  0  0
 84 85  1  0  0  0  0
 84 86  1  0  0  0  0
 86 87  1  0  0  0  0
 86 88  2  0  0  0  0
 88 89  1  0  0  0  0
 88 90  1  0  0  0  0
 90 91  1  0  0  0  0
M  END
> <ConfScore>
-0.747478 

> <SampleByParts>
10 7 6 92 4 1 14 17 20 23 25 26 27 29 30 33

$$$$
NPY1_MK299_12302016.pdb.B
  MOE2014           3D

 92 94  0  0  0  0  0  0  0  0999 V2000
  -54.9047  -16.8352   75.8034 C   0  0  0  1  0  0  0  0  0  0  0  0
  -55.0129  -17.7832   76.3382 H   0  0  0  1  0  0  0  0  0  0  0  0
  -54.0503  -16.2999   76.2306 H   0  0  0  1  0  0  0  0  0  0  0  0
  -56.0812  -16.0100   76.0288 N   0  0  0  1  0  0  0  0  0  0  0  0
  -56.5454  -15.6230   75.2157 H   0  0  0  1  0  0  0  0  0  0  0  0
  -56.6764  -15.6640   77.2116 C   0  0  0  1  0  0  0  0  0  0  0  0
  -57.8502  -14.7058   77.1478 C   0  0  0  1  0  0  0  0  0  0  0  0
  -58.5330  -14.9355   77.9729 H   0  0  0  1  0  0  0  0  0  0  0  0
  -58.3833  -14.8562   76.2038 H   0  0  0  1  0  0  0  0  0  0  0  0
  -57.4190  -13.2536   77.2485 C   0  0  0  1  0  0  0  0  0  0  0  0
  -58.2879  -12.5913   77.1855 H   0  0  0  1  0  0  0  0  0  0  0  0
  -56.7314  -12.9947   76.4383 H   0  0  0  1  0  0  0  0  0  0  0  0
  -56.9081  -13.0591   78.1971 H   0  0  0  1  0  0  0  0  0  0  0  0
  -54.6913  -17.0713   74.3135 C   0  0  0  1  0  0  0  0  0  0  0  0
  -55.6099  -17.4934   73.8919 H   0  0  0  1  0  0  0  0  0  0  0  0
  -54.5358  -16.1115   73.8045 H   0  0  0  1  0  0  0  0  0  0  0  0
  -53.5013  -17.9996   74.0310 C   0  0  0  1  0  0  0  0  0  0  0  0
  -52.5896  -17.5621   74.4377 H   0  0  0  1  0  0  0  0  0  0  0  0
  -53.6834  -18.9647   74.5038 H   0  0  0  1  0  0  0  0  0  0  0  0
  -53.3236  -18.2103   72.4986 C   0  0  0  1  0  0  0  0  0  0  0  0
  -53.2135  -17.2432   72.0078 H   0  0  0  1  0  0  0  0  0  0  0  0
  -54.1973  -18.7238   72.0973 H   0  0  0  1  0  0  0  0  0  0  0  0
  -52.1280  -19.0191   72.2603 N   0  0  0  1  0  0  0  0  0  0  0  0
  -51.5786  -19.2591   73.0731 H   0  0  0  1  0  0  0  0  0  0  0  0
  -51.6594  -19.4991   71.0244 C   0  0  0  1  0  0  0  0  0  0  0  0
  -52.2504  -19.1989   69.9736 O   0  0  0  1  0  0  0  0  0  0  0  0
  -50.4600  -20.2550   71.1740 N   0  0  0  1  0  0  0  0  0  0  0  0
  -50.1228  -20.3188   72.1239 H   0  0  0  1  0  0  0  0  0  0  0  0
  -49.6900  -20.9060   70.2590 C   0  0  0  1  0  0  0  0  0  0  0  0
  -50.2570  -20.8250   69.0000 N   0  0  0  1  0  0  0  0  0  0  0  0
  -49.8842  -21.3783   68.2417 H   0  0  0  1  0  0  0  0  0  0  0  0
  -51.0438  -20.2125   68.8389 H   0  0  0  1  0  0  0  0  0  0  0  0
  -48.6290  -21.7900   70.2920 N   0  0  0  1  0  0  0  0  0  0  0  0
  -47.7070  -22.1200   71.3230 C   0  0  0  1  0  0  0  0  0  0  0  0
  -48.1435  -21.9395   72.3054 H   0  0  0  1  0  0  0  0  0  0  0  0
  -47.3992  -23.1630   71.2482 H   0  0  0  1  0  0  0  0  0  0  0  0
  -46.5220  -21.1840   71.0740 C   0  0  0  1  0  0  0  0  0  0  0  0
  -46.9258  -20.2178   70.7716 H   0  0  0  1  0  0  0  0  0  0  0  0
  -45.9869  -21.0750   72.0173 H   0  0  0  1  0  0  0  0  0  0  0  0
  -45.4860  -21.6160   69.9960 C   0  0  0  1  0  0  0  0  0  0  0  0
  -45.9831  -21.6765   69.0278 H   0  0  0  1  0  0  0  0  0  0  0  0
  -45.0840  -22.5942   70.2597 H   0  0  0  1  0  0  0  0  0  0  0  0
  -44.2930  -20.5720   69.9030 C   0  0  0  1  0  0  0  0  0  0  0  0
  -43.4175  -20.9189   69.3542 H   0  0  0  1  0  0  0  0  0  0  0  0
  -43.9430  -20.2610   71.3950 C   0  0  0  1  0  0  0  0  0  0  0  0
  -43.2680  -21.2970   72.0370 N   0  0  0  1  0  0  0  0  0  0  0  0
  -42.9631  -22.0791   71.4753 H   0  0  0  1  0  0  0  0  0  0  0  0
  -42.9760  -21.3290   73.4430 C   0  0  0  1  0  0  0  0  0  0  0  0
  -42.1220  -21.9707   73.6596 H   0  0  0  1  0  0  0  0  0  0  0  0
  -42.7882  -20.3295   73.8353 H   0  0  0  1  0  0  0  0  0  0  0  0
  -44.2750  -21.9160   74.0000 C   0  0  0  1  0  0  0  0  0  0  0  0
  -44.6710  -23.2570   73.6750 C   0  0  0  1  0  0  0  0  0  0  0  0
  -44.0095  -23.8778   73.0890 H   0  0  0  1  0  0  0  0  0  0  0  0
  -45.9140  -23.7810   74.1090 C   0  0  0  1  0  0  0  0  0  0  0  0
  -46.2001  -24.7938   73.8667 H   0  0  0  1  0  0  0  0  0  0  0  0
  -46.7720  -22.9500   74.8660 C   0  0  0  1  0  0  0  0  0  0  0  0
  -48.0010  -23.3600   75.3380 O   0  0  0  1  0  0  0  0  0  0  0  0
  -48.4837  -22.6994   75.8401 H   0  0  0  1  0  0  0  0  0  0  0  0
  -46.3920  -21.6040   75.1900 C   0  0  0  1  0  0  0  0  0  0  0  0
  -47.0635  -20.9775   75.7583 H   0  0  0  1  0  0  0  0  0  0  0  0
  -45.1510  -21.0990   74.7710 C   0  0  0  1  0  0  0  0  0  0  0  0
  -44.8607  -20.0922   75.0329 H   0  0  0  1  0  0  0  0  0  0  0  0
  -44.2390  -19.1780   71.9410 O   0  0  0  1  0  0  0  0  0  0  0  0
  -44.8310  -19.3810   69.2410 N   0  0  0  1  0  0  0  0  0  0  0  0
  -45.3418  -18.7187   69.8071 H   0  0  0  1  0  0  0  0  0  0  0  0
  -44.6870  -19.1000   67.8890 C   0  0  0  1  0  0  0  0  0  0  0  0
  -44.0790  -19.8190   67.1090 O   0  0  0  1  0  0  0  0  0  0  0  0
  -45.4070  -17.8340   67.4640 C   0  0  0  1  0  0  0  0  0  0  0  0
  -45.5191  -17.1446   68.3008 H   0  0  0  1  0  0  0  0  0  0  0  0
  -46.7920  -18.2790   66.9880 C   0  0  0  1  0  0  0  0  0  0  0  0
  -47.9390  -17.9030   67.6910 C   0  0  0  1  0  0  0  0  0  0  0  0
  -47.8686  -17.2440   68.5437 H   0  0  0  1  0  0  0  0  0  0  0  0
  -49.1880  -18.3970   67.2700 C   0  0  0  1  0  0  0  0  0  0  0  0
  -50.0790  -18.1102   67.8088 H   0  0  0  1  0  0  0  0  0  0  0  0
  -46.9160  -19.1540   65.8530 C   0  0  0  1  0  0  0  0  0  0  0  0
  -46.0285  -19.4383   65.3071 H   0  0  0  1  0  0  0  0  0  0  0  0
  -48.1600  -19.6460   65.4390 C   0  0  0  1  0  0  0  0  0  0  0  0
  -48.2363  -20.3059   64.5875 H   0  0  0  1  0  0  0  0  0  0  0  0
  -49.3010  -19.2650   66.1510 C   0  0  0  1  0  0  0  0  0  0  0  0
  -50.2712  -19.6315   65.8496 H   0  0  0  1  0  0  0  0  0  0  0  0
  -44.6090  -16.9290   66.5050 C   0  0  0  1  0  0  0  0  0  0  0  0
  -43.2450  -16.6910   66.7460 C   0  0  0  1  0  0  0  0  0  0  0  0
  -42.7509  -17.1929   67.5647 H   0  0  0  1  0  0  0  0  0  0  0  0
  -42.5140  -15.8010   65.9270 C   0  0  0  1  0  0  0  0  0  0  0  0
  -41.4684  -15.6253   66.1325 H   0  0  0  1  0  0  0  0  0  0  0  0
  -43.1280  -15.1420   64.8500 C   0  0  0  1  0  0  0  0  0  0  0  0
  -42.5627  -14.4605   64.2316 H   0  0  0  1  0  0  0  0  0  0  0  0
  -44.4780  -15.3790   64.5890 C   0  0  0  1  0  0  0  0  0  0  0  0
  -44.9601  -14.8861   63.7577 H   0  0  0  1  0  0  0  0  0  0  0  0
  -45.2150  -16.2600   65.4070 C   0  0  0  1  0  0  0  0  0  0  0  0
  -46.2603  -16.4297   65.1951 H   0  0  0  1  0  0  0  0  0  0  0  0
  -56.2508  -16.1451   78.2609 O   0  0  0  1  0  0  0  0  0  0  0  0
  1  2  1  0  0  0  0
  1  3  1  0  0  0  0
  1  4  1  0  0  0  0
  1 14  1  0  0  0  0
  4  5  1  0  0  0  0
  4  6  1  0  0  0  0
  6  7  1  0  0  0  0
  6 92  2  0  0  0  0
  7  8  1  0  0  0  0
  7  9  1  0  0  0  0
  7 10  1  0  0  0  0
 10 11  1  0  0  0  0
 10 12  1  0  0  0  0
 10 13  1  0  0  0  0
 14 15  1  0  0  0  0
 14 16  1  0  0  0  0
 14 17  1  0  0  0  0
 17 18  1  0  0  0  0
 17 19  1  0  0  0  0
 17 20  1  0  0  0  0
 20 21  1  0  0  0  0
 20 22  1  0  0  0  0
 20 23  1  0  0  0  0
 23 24  1  0  0  0  0
 23 25  1  0  0  0  0
 25 26  2  0  0  0  0
 25 27  1  0  0  0  0
 27 28  1  0  0  0  0
 27 29  1  0  0  0  0
 29 30  1  0  0  0  0
 29 33  2  0  0  0  0
 30 31  1  0  0  0  0
 30 32  1  0  0  0  0
 33 34  1  0  0  0  0
 34 35  1  0  0  0  0
 34 36  1  0  0  0  0
 34 37  1  0  0  0  0
 37 38  1  0  0  0  0
 37 39  1  0  0  0  0
 37 40  1  0  0  0  0
 40 41  1  0  0  0  0
 40 42  1  0  0  0  0
 40 43  1  0  0  0  0
 43 44  1  0  0  0  0
 43 45  1  0  0  0  0
 43 64  1  0  0  0  0
 45 46  1  0  0  0  0
 45 63  2  0  0  0  0
 46 47  1  0  0  0  0
 46 48  1  0  0  0  0
 48 49  1  0  0  0  0
 48 50  1  0  0  0  0
 48 51  1  0  0  0  0
 51 52  1  0  0  0  0
 51 61  2  0  0  0  0
 52 53  1  0  0  0  0
 52 54  2  0  0  0  0
 54 55  1  0  0  0  0
 54 56  1  0  0  0  0
 56 57  1  0  0  0  0
 56 59  2  0  0  0  0
 57 58  1  0  0  0  0
 59 60  1  0  0  0  0
 59 61  1  0  0  0  0
 61 62  1  0  0  0  0
 64 65  1  0  0  0  0
 64 66  1  0  0  0  0
 66 67  2  0  0  0  0
 66 68  1  0  0  0  0
 68 69  1  0  0  0  0
 68 70  1  0  0  0  0
 68 81  1  0  0  0  0
 70 71  2  0  0  0  0
 70 75  1  0  0  0  0
 71 72  1  0  0  0  0
 71 73  1  0  0  0  0
 73 74  1  0  0  0  0
 73 79  2  0  0  0  0
 75 76  1  0  0  0  0
 75 77  2  0  0  0  0
 77 78  1  0  0  0  0
 77 79  1  0  0  0  0
 79 80  1  0  0  0  0
 81 82  1  0  0  0  0
 81 90  2  0  0  0  0
 82 83  1  0  0  0  0
 82 84  2  0  0  0  0
 84 85  1  0  0  0  0
 84 86  1  0  0  0  0
 86 87  1  0  0  0  0
 86 88  2  0  0  0  0
 88 89  1  0  0  0  0
 88 90  1  0  0  0  0
 90 91  1  0  0  0  0
M  END
> <ConfScore>
-0.747478 

> <SampleByParts>
10 7 6 92 4 1 14 17 20 23 25 26 27 29 30 33

$$$$
NPY1_MK299_12302016.pdb.B
  MOE2014           3D

 92 94  0  0  0  0  0  0  0  0999 V2000
  -54.6075  -16.3723   75.7159 C   0  0  0  1  0  0  0  0  0  0  0  0
  -54.9251  -17.2265   76.3208 H   0  0  0  1  0  0  0  0  0  0  0  0
  -53.6410  -16.0266   76.0973 H   0  0  0  1  0  0  0  0  0  0  0  0
  -55.5493  -15.2767   75.8850 N   0  0  0  1  0  0  0  0  0  0  0  0
  -56.0210  -14.9319   75.0574 H   0  0  0  1  0  0  0  0  0  0  0  0
  -55.9070  -14.6177   77.0299 C   0  0  0  1  0  0  0  0  0  0  0  0
  -56.9200  -13.4964   76.9019 C   0  0  0  1  0  0  0  0  0  0  0  0
  -57.6235  -13.5648   77.7387 H   0  0  0  1  0  0  0  0  0  0  0  0
  -57.4773  -13.6232   75.9684 H   0  0  0  1  0  0  0  0  0  0  0  0
  -56.2700  -12.1243   76.9095 C   0  0  0  1  0  0  0  0  0  0  0  0
  -57.0273  -11.3417   76.8020 H   0  0  0  1  0  0  0  0  0  0  0  0
  -55.5572  -12.0269   76.0857 H   0  0  0  1  0  0  0  0  0  0  0  0
  -55.7278  -11.9504   77.8446 H   0  0  0  1  0  0  0  0  0  0  0  0
  -54.4904  -16.7584   74.2468 C   0  0  0  1  0  0  0  0  0  0  0  0
  -55.4207  -17.2481   73.9394 H   0  0  0  1  0  0  0  0  0  0  0  0
  -54.4047  -15.8538   73.6314 H   0  0  0  1  0  0  0  0  0  0  0  0
  -53.2910  -17.6780   73.9756 C   0  0  0  1  0  0  0  0  0  0  0  0
  -52.3677  -17.1681   74.2507 H   0  0  0  1  0  0  0  0  0  0  0  0
  -53.3966  -18.5847   74.5712 H   0  0  0  1  0  0  0  0  0  0  0  0
  -53.2279  -18.0647   72.4687 C   0  0  0  1  0  0  0  0  0  0  0  0
  -53.1419  -17.1620   71.8638 H   0  0  0  1  0  0  0  0  0  0  0  0
  -54.1348  -18.6023   72.1919 H   0  0  0  1  0  0  0  0  0  0  0  0
  -52.0629  -18.9197   72.2406 N   0  0  0  1  0  0  0  0  0  0  0  0
  -51.4848  -19.1155   73.0452 H   0  0  0  1  0  0  0  0  0  0  0  0
  -51.6594  -19.4991   71.0244 C   0  0  0  1  0  0  0  0  0  0  0  0
  -52.2990  -19.2741   69.9833 O   0  0  0  1  0  0  0  0  0  0  0  0
  -50.4600  -20.2550   71.1740 N   0  0  0  1  0  0  0  0  0  0  0  0
  -50.1228  -20.3188   72.1239 H   0  0  0  1  0  0  0  0  0  0  0  0
  -49.6900  -20.9060   70.2590 C   0  0  0  1  0  0  0  0  0  0  0  0
  -50.2570  -20.8250   69.0000 N   0  0  0  1  0  0  0  0  0  0  0  0
  -49.8842  -21.3783   68.2417 H   0  0  0  1  0  0  0  0  0  0  0  0
  -51.0438  -20.2125   68.8389 H   0  0  0  1  0  0  0  0  0  0  0  0
  -48.6290  -21.7900   70.2920 N   0  0  0  1  0  0  0  0  0  0  0  0
  -47.7070  -22.1200   71.3230 C   0  0  0  1  0  0  0  0  0  0  0  0
  -48.1435  -21.9395   72.3054 H   0  0  0  1  0  0  0  0  0  0  0  0
  -47.3992  -23.1630   71.2482 H   0  0  0  1  0  0  0  0  0  0  0  0
  -46.5220  -21.1840   71.0740 C   0  0  0  1  0  0  0  0  0  0  0  0
  -46.9258  -20.2178   70.7716 H   0  0  0  1  0  0  0  0  0  0  0  0
  -45.9869  -21.0750   72.0173 H   0  0  0  1  0  0  0  0  0  0  0  0
  -45.4860  -21.6160   69.9960 C   0  0  0  1  0  0  0  0  0  0  0  0
  -45.9831  -21.6765   69.0278 H   0  0  0  1  0  0  0  0  0  0  0  0
  -45.0840  -22.5942   70.2597 H   0  0  0  1  0  0  0  0  0  0  0  0
  -44.2930  -20.5720   69.9030 C   0  0  0  1  0  0  0  0  0  0  0  0
  -43.4175  -20.9189   69.3542 H   0  0  0  1  0  0  0  0  0  0  0  0
  -43.9430  -20.2610   71.3950 C   0  0  0  1  0  0  0  0  0  0  0  0
  -43.2680  -21.2970   72.0370 N   0  0  0  1  0  0  0  0  0  0  0  0
  -42.9631  -22.0791   71.4753 H   0  0  0  1  0  0  0  0  0  0  0  0
  -42.9760  -21.3290   73.4430 C   0  0  0  1  0  0  0  0  0  0  0  0
  -42.1220  -21.9707   73.6596 H   0  0  0  1  0  0  0  0  0  0  0  0
  -42.7882  -20.3295   73.8353 H   0  0  0  1  0  0  0  0  0  0  0  0
  -44.2750  -21.9160   74.0000 C   0  0  0  1  0  0  0  0  0  0  0  0
  -44.6710  -23.2570   73.6750 C   0  0  0  1  0  0  0  0  0  0  0  0
  -44.0095  -23.8778   73.0890 H   0  0  0  1  0  0  0  0  0  0  0  0
  -45.9140  -23.7810   74.1090 C   0  0  0  1  0  0  0  0  0  0  0  0
  -46.2001  -24.7938   73.8667 H   0  0  0  1  0  0  0  0  0  0  0  0
  -46.7720  -22.9500   74.8660 C   0  0  0  1  0  0  0  0  0  0  0  0
  -48.0010  -23.3600   75.3380 O   0  0  0  1  0  0  0  0  0  0  0  0
  -48.4837  -22.6994   75.8401 H   0  0  0  1  0  0  0  0  0  0  0  0
  -46.3920  -21.6040   75.1900 C   0  0  0  1  0  0  0  0  0  0  0  0
  -47.0635  -20.9775   75.7583 H   0  0  0  1  0  0  0  0  0  0  0  0
  -45.1510  -21.0990   74.7710 C   0  0  0  1  0  0  0  0  0  0  0  0
  -44.8607  -20.0922   75.0329 H   0  0  0  1  0  0  0  0  0  0  0  0
  -44.2390  -19.1780   71.9410 O   0  0  0  1  0  0  0  0  0  0  0  0
  -44.8310  -19.3810   69.2410 N   0  0  0  1  0  0  0  0  0  0  0  0
  -45.3418  -18.7187   69.8071 H   0  0  0  1  0  0  0  0  0  0  0  0
  -44.6870  -19.1000   67.8890 C   0  0  0  1  0  0  0  0  0  0  0  0
  -44.0790  -19.8190   67.1090 O   0  0  0  1  0  0  0  0  0  0  0  0
  -45.4070  -17.8340   67.4640 C   0  0  0  1  0  0  0  0  0  0  0  0
  -45.5191  -17.1446   68.3008 H   0  0  0  1  0  0  0  0  0  0  0  0
  -46.7920  -18.2790   66.9880 C   0  0  0  1  0  0  0  0  0  0  0  0
  -47.9390  -17.9030   67.6910 C   0  0  0  1  0  0  0  0  0  0  0  0
  -47.8686  -17.2440   68.5437 H   0  0  0  1  0  0  0  0  0  0  0  0
  -49.1880  -18.3970   67.2700 C   0  0  0  1  0  0  0  0  0  0  0  0
  -50.0790  -18.1102   67.8088 H   0  0  0  1  0  0  0  0  0  0  0  0
  -46.9160  -19.1540   65.8530 C   0  0  0  1  0  0  0  0  0  0  0  0
  -46.0285  -19.4383   65.3071 H   0  0  0  1  0  0  0  0  0  0  0  0
  -48.1600  -19.6460   65.4390 C   0  0  0  1  0  0  0  0  0  0  0  0
  -48.2363  -20.3059   64.5875 H   0  0  0  1  0  0  0  0  0  0  0  0
  -49.3010  -19.2650   66.1510 C   0  0  0  1  0  0  0  0  0  0  0  0
  -50.2712  -19.6315   65.8496 H   0  0  0  1  0  0  0  0  0  0  0  0
  -44.6090  -16.9290   66.5050 C   0  0  0  1  0  0  0  0  0  0  0  0
  -43.2450  -16.6910   66.7460 C   0  0  0  1  0  0  0  0  0  0  0  0
  -42.7509  -17.1929   67.5647 H   0  0  0  1  0  0  0  0  0  0  0  0
  -42.5140  -15.8010   65.9270 C   0  0  0  1  0  0  0  0  0  0  0  0
  -41.4684  -15.6253   66.1325 H   0  0  0  1  0  0  0  0  0  0  0  0
  -43.1280  -15.1420   64.8500 C   0  0  0  1  0  0  0  0  0  0  0  0
  -42.5627  -14.4605   64.2316 H   0  0  0  1  0  0  0  0  0  0  0  0
  -44.4780  -15.3790   64.5890 C   0  0  0  1  0  0  0  0  0  0  0  0
  -44.9601  -14.8861   63.7577 H   0  0  0  1  0  0  0  0  0  0  0  0
  -45.2150  -16.2600   65.4070 C   0  0  0  1  0  0  0  0  0  0  0  0
  -46.2603  -16.4297   65.1951 H   0  0  0  1  0  0  0  0  0  0  0  0
  -55.4102  -14.9629   78.1011 O   0  0  0  1  0  0  0  0  0  0  0  0
  1  2  1  0  0  0  0
  1  3  1  0  0  0  0
  1  4  1  0  0  0  0
  1 14  1  0  0  0  0
  4  5  1  0  0  0  0
  4  6  1  0  0  0  0
  6  7  1  0  0  0  0
  6 92  2  0  0  0  0
  7  8  1  0  0  0  0
  7  9  1  0  0  0  0
  7 10  1  0  0  0  0
 10 11  1  0  0  0  0
 10 12  1  0  0  0  0
 10 13  1  0  0  0  0
 14 15  1  0  0  0  0
 14 16  1  0  0  0  0
 14 17  1  0  0  0  0
 17 18  1  0  0  0  0
 17 19  1  0  0  0  0
 17 20  1  0  0  0  0
 20 21  1  0  0  0  0
 20 22  1  0  0  0  0
 20 23  1  0  0  0  0
 23 24  1  0  0  0  0
 23 25  1  0  0  0  0
 25 26  2  0  0  0  0
 25 27  1  0  0  0  0
 27 28  1  0  0  0  0
 27 29  1  0  0  0  0
 29 30  1  0  0  0  0
 29 33  2  0  0  0  0
 30 31  1  0  0  0  0
 30 32  1  0  0  0  0
 33 34  1  0  0  0  0
 34 35  1  0  0  0  0
 34 36  1  0  0  0  0
 34 37  1  0  0  0  0
 37 38  1  0  0  0  0
 37 39  1  0  0  0  0
 37 40  1  0  0  0  0
 40 41  1  0  0  0  0
 40 42  1  0  0  0  0
 40 43  1  0  0  0  0
 43 44  1  0  0  0  0
 43 45  1  0  0  0  0
 43 64  1  0  0  0  0
 45 46  1  0  0  0  0
 45 63  2  0  0  0  0
 46 47  1  0  0  0  0
 46 48  1  0  0  0  0
 48 49  1  0  0  0  0
 48 50  1  0  0  0  0
 48 51  1  0  0  0  0
 51 52  1  0  0  0  0
 51 61  2  0  0  0  0
 52 53  1  0  0  0  0
 52 54  2  0  0  0  0
 54 55  1  0  0  0  0
 54 56  1  0  0  0  0
 56 57  1  0  0  0  0
 56 59  2  0  0  0  0
 57 58  1  0  0  0  0
 59 60  1  0  0  0  0
 59 61  1  0  0  0  0
 61 62  1  0  0  0  0
 64 65  1  0  0  0  0
 64 66  1  0  0  0  0
 66 67  2  0  0  0  0
 66 68  1  0  0  0  0
 68 69  1  0  0  0  0
 68 70  1  0  0  0  0
 68 81  1  0  0  0  0
 70 71  2  0  0  0  0
 70 75  1  0  0  0  0
 71 72  1  0  0  0  0
 71 73  1  0  0  0  0
 73 74  1  0  0  0  0
 73 79  2  0  0  0  0
 75 76  1  0  0  0  0
 75 77  2  0  0  0  0
 77 78  1  0  0  0  0
 77 79  1  0  0  0  0
 79 80  1  0  0  0  0
 81 82  1  0  0  0  0
 81 90  2  0  0  0  0
 82 83  1  0  0  0  0
 82 84  2  0  0  0  0
 84 85  1  0  0  0  0
 84 86  1  0  0  0  0
 86 87  1  0  0  0  0
 86 88  2  0  0  0  0
 88 89  1  0  0  0  0
 88 90  1  0  0  0  0
 90 91  1  0  0  0  0
M  END
> <ConfScore>
-0.747478 

> <SampleByParts>
10 7 6 92 4 1 14 17 20 23 25 26 27 29 30 33

$$$$
NPY1_MK299_12302016.pdb.B
  MOE2014           3D

 92 94  0  0  0  0  0  0  0  0999 V2000
  -54.3946  -17.0070   76.3574 C   0  0  0  1  0  0  0  0  0  0  0  0
  -54.4161  -16.1067   75.7366 H   0  0  0  1  0  0  0  0  0  0  0  0
  -55.2529  -17.6293   76.0830 H   0  0  0  1  0  0  0  0  0  0  0  0
  -54.5627  -16.6409   77.7551 N   0  0  0  1  0  0  0  0  0  0  0  0
  -53.8458  -16.9368   78.4069 H   0  0  0  1  0  0  0  0  0  0  0  0
  -55.5762  -15.9346   78.3443 C   0  0  0  1  0  0  0  0  0  0  0  0
  -55.4903  -15.7084   79.8414 C   0  0  0  1  0  0  0  0  0  0  0  0
  -55.9787  -14.7572   80.0789 H   0  0  0  1  0  0  0  0  0  0  0  0
  -54.4373  -15.6404   80.1326 H   0  0  0  1  0  0  0  0  0  0  0  0
  -56.1538  -16.8200   80.6346 C   0  0  0  1  0  0  0  0  0  0  0  0
  -56.0612  -16.6313   81.7086 H   0  0  0  1  0  0  0  0  0  0  0  0
  -55.6894  -17.7855   80.4150 H   0  0  0  1  0  0  0  0  0  0  0  0
  -57.2184  -16.8966   80.3908 H   0  0  0  1  0  0  0  0  0  0  0  0
  -53.0956  -17.7770   76.1561 C   0  0  0  1  0  0  0  0  0  0  0  0
  -52.2656  -17.1629   76.5218 H   0  0  0  1  0  0  0  0  0  0  0  0
  -53.1011  -18.6822   76.7765 H   0  0  0  1  0  0  0  0  0  0  0  0
  -52.8641  -18.1636   74.6882 C   0  0  0  1  0  0  0  0  0  0  0  0
  -53.6854  -18.7896   74.3393 H   0  0  0  1  0  0  0  0  0  0  0  0
  -52.8169  -17.2568   74.0851 H   0  0  0  1  0  0  0  0  0  0  0  0
  -51.5274  -18.9468   74.5331 C   0  0  0  1  0  0  0  0  0  0  0  0
  -51.5580  -19.8460   75.1485 H   0  0  0  1  0  0  0  0  0  0  0  0
  -50.6966  -18.3170   74.8512 H   0  0  0  1  0  0  0  0  0  0  0  0
  -51.3493  -19.3199   73.1296 N   0  0  0  1  0  0  0  0  0  0  0  0
  -52.0785  -19.0330   72.4924 H   0  0  0  1  0  0  0  0  0  0  0  0
  -50.2748  -20.0341   72.5701 C   0  0  0  1  0  0  0  0  0  0  0  0
  -49.3487  -20.4367   73.2938 O   0  0  0  1  0  0  0  0  0  0  0  0
  -50.4600  -20.2550   71.1740 N   0  0  0  1  0  0  0  0  0  0  0  0
  -51.3102  -19.8599   70.7983 H   0  0  0  1  0  0  0  0  0  0  0  0
  -49.6900  -20.9060   70.2590 C   0  0  0  1  0  0  0  0  0  0  0  0
  -50.2570  -20.8250   69.0000 N   0  0  0  1  0  0  0  0  0  0  0  0
  -49.8842  -21.3783   68.2417 H   0  0  0  1  0  0  0  0  0  0  0  0
  -51.0438  -20.2125   68.8389 H   0  0  0  1  0  0  0  0  0  0  0  0
  -48.6290  -21.7900   70.2920 N   0  0  0  1  0  0  0  0  0  0  0  0
  -47.7070  -22.1200   71.3230 C   0  0  0  1  0  0  0  0  0  0  0  0
  -48.1435  -21.9395   72.3054 H   0  0  0  1  0  0  0  0  0  0  0  0
  -47.3992  -23.1630   71.2482 H   0  0  0  1  0  0  0  0  0  0  0  0
  -46.5220  -21.1840   71.0740 C   0  0  0  1  0  0  0  0  0  0  0  0
  -46.9258  -20.2178   70.7716 H   0  0  0  1  0  0  0  0  0  0  0  0
  -45.9869  -21.0750   72.0173 H   0  0  0  1  0  0  0  0  0  0  0  0
  -45.4860  -21.6160   69.9960 C   0  0  0  1  0  0  0  0  0  0  0  0
  -45.9831  -21.6765   69.0278 H   0  0  0  1  0  0  0  0  0  0  0  0
  -45.0840  -22.5942   70.2597 H   0  0  0  1  0  0  0  0  0  0  0  0
  -44.2930  -20.5720   69.9030 C   0  0  0  1  0  0  0  0  0  0  0  0
  -43.4175  -20.9189   69.3542 H   0  0  0  1  0  0  0  0  0  0  0  0
  -43.9430  -20.2610   71.3950 C   0  0  0  1  0  0  0  0  0  0  0  0
  -43.2680  -21.2970   72.0370 N   0  0  0  1  0  0  0  0  0  0  0  0
  -42.9631  -22.0791   71.4753 H   0  0  0  1  0  0  0  0  0  0  0  0
  -42.9760  -21.3290   73.4430 C   0  0  0  1  0  0  0  0  0  0  0  0
  -42.1220  -21.9707   73.6596 H   0  0  0  1  0  0  0  0  0  0  0  0
  -42.7882  -20.3295   73.8353 H   0  0  0  1  0  0  0  0  0  0  0  0
  -44.2750  -21.9160   74.0000 C   0  0  0  1  0  0  0  0  0  0  0  0
  -44.6710  -23.2570   73.6750 C   0  0  0  1  0  0  0  0  0  0  0  0
  -44.0095  -23.8778   73.0890 H   0  0  0  1  0  0  0  0  0  0  0  0
  -45.9140  -23.7810   74.1090 C   0  0  0  1  0  0  0  0  0  0  0  0
  -46.2001  -24.7938   73.8667 H   0  0  0  1  0  0  0  0  0  0  0  0
  -46.7720  -22.9500   74.8660 C   0  0  0  1  0  0  0  0  0  0  0  0
  -48.0010  -23.3600   75.3380 O   0  0  0  1  0  0  0  0  0  0  0  0
  -48.4837  -22.6994   75.8401 H   0  0  0  1  0  0  0  0  0  0  0  0
  -46.3920  -21.6040   75.1900 C   0  0  0  1  0  0  0  0  0  0  0  0
  -47.0635  -20.9775   75.7583 H   0  0  0  1  0  0  0  0  0  0  0  0
  -45.1510  -21.0990   74.7710 C   0  0  0  1  0  0  0  0  0  0  0  0
  -44.8607  -20.0922   75.0329 H   0  0  0  1  0  0  0  0  0  0  0  0
  -44.2390  -19.1780   71.9410 O   0  0  0  1  0  0  0  0  0  0  0  0
  -44.8310  -19.3810   69.2410 N   0  0  0  1  0  0  0  0  0  0  0  0
  -45.3418  -18.7187   69.8071 H   0  0  0  1  0  0  0  0  0  0  0  0
  -44.6870  -19.1000   67.8890 C   0  0  0  1  0  0  0  0  0  0  0  0
  -44.0790  -19.8190   67.1090 O   0  0  0  1  0  0  0  0  0  0  0  0
  -45.4070  -17.8340   67.4640 C   0  0  0  1  0  0  0  0  0  0  0  0
  -45.5191  -17.1446   68.3008 H   0  0  0  1  0  0  0  0  0  0  0  0
  -46.7920  -18.2790   66.9880 C   0  0  0  1  0  0  0  0  0  0  0  0
  -47.9390  -17.9030   67.6910 C   0  0  0  1  0  0  0  0  0  0  0  0
  -47.8686  -17.2440   68.5437 H   0  0  0  1  0  0  0  0  0  0  0  0
  -49.1880  -18.3970   67.2700 C   0  0  0  1  0  0  0  0  0  0  0  0
  -50.0790  -18.1102   67.8088 H   0  0  0  1  0  0  0  0  0  0  0  0
  -46.9160  -19.1540   65.8530 C   0  0  0  1  0  0  0  0  0  0  0  0
  -46.0285  -19.4383   65.3071 H   0  0  0  1  0  0  0  0  0  0  0  0
  -48.1600  -19.6460   65.4390 C   0  0  0  1  0  0  0  0  0  0  0  0
  -48.2363  -20.3059   64.5875 H   0  0  0  1  0  0  0  0  0  0  0  0
  -49.3010  -19.2650   66.1510 C   0  0  0  1  0  0  0  0  0  0  0  0
  -50.2712  -19.6315   65.8496 H   0  0  0  1  0  0  0  0  0  0  0  0
  -44.6090  -16.9290   66.5050 C   0  0  0  1  0  0  0  0  0  0  0  0
  -43.2450  -16.6910   66.7460 C   0  0  0  1  0  0  0  0  0  0  0  0
  -42.7509  -17.1929   67.5647 H   0  0  0  1  0  0  0  0  0  0  0  0
  -42.5140  -15.8010   65.9270 C   0  0  0  1  0  0  0  0  0  0  0  0
  -41.4684  -15.6253   66.1325 H   0  0  0  1  0  0  0  0  0  0  0  0
  -43.1280  -15.1420   64.8500 C   0  0  0  1  0  0  0  0  0  0  0  0
  -42.5627  -14.4605   64.2316 H   0  0  0  1  0  0  0  0  0  0  0  0
  -44.4780  -15.3790   64.5890 C   0  0  0  1  0  0  0  0  0  0  0  0
  -44.9601  -14.8861   63.7577 H   0  0  0  1  0  0  0  0  0  0  0  0
  -45.2150  -16.2600   65.4070 C   0  0  0  1  0  0  0  0  0  0  0  0
  -46.2603  -16.4297   65.1951 H   0  0  0  1  0  0  0  0  0  0  0  0
  -56.4952  -15.5082   77.6463 O   0  0  0  1  0  0  0  0  0  0  0  0
  1  2  1  0  0  0  0
  1  3  1  0  0  0  0
  1  4  1  0  0  0  0
  1 14  1  0  0  0  0
  4  5  1  0  0  0  0
  4  6  1  0  0  0  0
  6  7  1  0  0  0  0
  6 92  2  0  0  0  0
  7  8  1  0  0  0  0
  7  9  1  0  0  0  0
  7 10  1  0  0  0  0
 10 11  1  0  0  0  0
 10 12  1  0  0  0  0
 10 13  1  0  0  0  0
 14 15  1  0  0  0  0
 14 16  1  0  0  0  0
 14 17  1  0  0  0  0
 17 18  1  0  0  0  0
 17 19  1  0  0  0  0
 17 20  1  0  0  0  0
 20 21  1  0  0  0  0
 20 22  1  0  0  0  0
 20 23  1  0  0  0  0
 23 24  1  0  0  0  0
 23 25  1  0  0  0  0
 25 26  2  0  0  0  0
 25 27  1  0  0  0  0
 27 28  1  0  0  0  0
 27 29  1  0  0  0  0
 29 30  1  0  0  0  0
 29 33  2  0  0  0  0
 30 31  1  0  0  0  0
 30 32  1  0  0  0  0
 33 34  1  0  0  0  0
 34 35  1  0  0  0  0
 34 36  1  0  0  0  0
 34 37  1  0  0  0  0
 37 38  1  0  0  0  0
 37 39  1  0  0  0  0
 37 40  1  0  0  0  0
 40 41  1  0  0  0  0
 40 42  1  0  0  0  0
 40 43  1  0  0  0  0
 43 44  1  0  0  0  0
 43 45  1  0  0  0  0
 43 64  1  0  0  0  0
 45 46  1  0  0  0  0
 45 63  2  0  0  0  0
 46 47  1  0  0  0  0
 46 48  1  0  0  0  0
 48 49  1  0  0  0  0
 48 50  1  0  0  0  0
 48 51  1  0  0  0  0
 51 52  1  0  0  0  0
 51 61  2  0  0  0  0
 52 53  1  0  0  0  0
 52 54  2  0  0  0  0
 54 55  1  0  0  0  0
 54 56  1  0  0  0  0
 56 57  1  0  0  0  0
 56 59  2  0  0  0  0
 57 58  1  0  0  0  0
 59 60  1  0  0  0  0
 59 61  1  0  0  0  0
 61 62  1  0  0  0  0
 64 65  1  0  0  0  0
 64 66  1  0  0  0  0
 66 67  2  0  0  0  0
 66 68  1  0  0  0  0
 68 69  1  0  0  0  0
 68 70  1  0  0  0  0
 68 81  1  0  0  0  0
 70 71  2  0  0  0  0
 70 75  1  0  0  0  0
 71 72  1  0  0  0  0
 71 73  1  0  0  0  0
 73 74  1  0  0  0  0
 73 79  2  0  0  0  0
 75 76  1  0  0  0  0
 75 77  2  0  0  0  0
 77 78  1  0  0  0  0
 77 79  1  0  0  0  0
 79 80  1  0  0  0  0
 81 82  1  0  0  0  0
 81 90  2  0  0  0  0
 82 83  1  0  0  0  0
 82 84  2  0  0  0  0
 84 85  1  0  0  0  0
 84 86  1  0  0  0  0
 86 87  1  0  0  0  0
 86 88  2  0  0  0  0
 88 89  1  0  0  0  0
 88 90  1  0  0  0  0
 90 91  1  0  0  0  0
M  END
> <ConfScore>
-0.716862 

> <SampleByParts>
10 7 6 92 4 1 14 17 20 23 25 26 27 29 30 33

$$$$
NPY1_MK299_12302016.pdb.B
  MOE2014           3D

 92 94  0  0  0  0  0  0  0  0999 V2000
  -54.6613  -17.3156   76.3325 C   0  0  0  1  0  0  0  0  0  0  0  0
  -54.4330  -16.3211   75.9387 H   0  0  0  1  0  0  0  0  0  0  0  0
  -55.5369  -17.6996   75.7986 H   0  0  0  1  0  0  0  0  0  0  0  0
  -55.0289  -17.2128   77.7362 N   0  0  0  1  0  0  0  0  0  0  0  0
  -54.5075  -17.7733   78.3998 H   0  0  0  1  0  0  0  0  0  0  0  0
  -56.0052  -16.4494   78.3168 C   0  0  0  1  0  0  0  0  0  0  0  0
  -56.1941  -16.5806   79.8158 C   0  0  0  1  0  0  0  0  0  0  0  0
  -56.5609  -15.6250   80.2059 H   0  0  0  1  0  0  0  0  0  0  0  0
  -55.2269  -16.7970   80.2803 H   0  0  0  1  0  0  0  0  0  0  0  0
  -57.1774  -17.6778   80.1823 C   0  0  0  1  0  0  0  0  0  0  0  0
  -57.2788  -17.7532   81.2693 H   0  0  0  1  0  0  0  0  0  0  0  0
  -56.8398  -18.6460   79.8017 H   0  0  0  1  0  0  0  0  0  0  0  0
  -58.1670  -17.4775   79.7590 H   0  0  0  1  0  0  0  0  0  0  0  0
  -53.4769  -18.2573   76.1548 C   0  0  0  1  0  0  0  0  0  0  0  0
  -52.6355  -17.8745   76.7424 H   0  0  0  1  0  0  0  0  0  0  0  0
  -53.7193  -19.2415   76.5754 H   0  0  0  1  0  0  0  0  0  0  0  0
  -53.0689  -18.4156   74.6830 C   0  0  0  1  0  0  0  0  0  0  0  0
  -53.9064  -18.8144   74.1106 H   0  0  0  1  0  0  0  0  0  0  0  0
  -52.7884  -17.4404   74.2851 H   0  0  0  1  0  0  0  0  0  0  0  0
  -51.8574  -19.3849   74.5525 C   0  0  0  1  0  0  0  0  0  0  0  0
  -52.1284  -20.3630   74.9500 H   0  0  0  1  0  0  0  0  0  0  0  0
  -51.0105  -18.9874   75.1119 H   0  0  0  1  0  0  0  0  0  0  0  0
  -51.4949  -19.5133   73.1409 N   0  0  0  1  0  0  0  0  0  0  0  0
  -52.0605  -18.9966   72.4829 H   0  0  0  1  0  0  0  0  0  0  0  0
  -50.4456  -20.2771   72.5993 C   0  0  0  1  0  0  0  0  0  0  0  0
  -49.6833  -20.9104   73.3486 O   0  0  0  1  0  0  0  0  0  0  0  0
  -50.4600  -20.2550   71.1740 N   0  0  0  1  0  0  0  0  0  0  0  0
  -51.1638  -19.6515   70.7732 H   0  0  0  1  0  0  0  0  0  0  0  0
  -49.6900  -20.9060   70.2590 C   0  0  0  1  0  0  0  0  0  0  0  0
  -50.2570  -20.8250   69.0000 N   0  0  0  1  0  0  0  0  0  0  0  0
  -49.8842  -21.3783   68.2417 H   0  0  0  1  0  0  0  0  0  0  0  0
  -51.0438  -20.2125   68.8389 H   0  0  0  1  0  0  0  0  0  0  0  0
  -48.6290  -21.7900   70.2920 N   0  0  0  1  0  0  0  0  0  0  0  0
  -47.7070  -22.1200   71.3230 C   0  0  0  1  0  0  0  0  0  0  0  0
  -48.1435  -21.9395   72.3054 H   0  0  0  1  0  0  0  0  0  0  0  0
  -47.3992  -23.1630   71.2482 H   0  0  0  1  0  0  0  0  0  0  0  0
  -46.5220  -21.1840   71.0740 C   0  0  0  1  0  0  0  0  0  0  0  0
  -46.9258  -20.2178   70.7716 H   0  0  0  1  0  0  0  0  0  0  0  0
  -45.9869  -21.0750   72.0173 H   0  0  0  1  0  0  0  0  0  0  0  0
  -45.4860  -21.6160   69.9960 C   0  0  0  1  0  0  0  0  0  0  0  0
  -45.9831  -21.6765   69.0278 H   0  0  0  1  0  0  0  0  0  0  0  0
  -45.0840  -22.5942   70.2597 H   0  0  0  1  0  0  0  0  0  0  0  0
  -44.2930  -20.5720   69.9030 C   0  0  0  1  0  0  0  0  0  0  0  0
  -43.4175  -20.9189   69.3542 H   0  0  0  1  0  0  0  0  0  0  0  0
  -43.9430  -20.2610   71.3950 C   0  0  0  1  0  0  0  0  0  0  0  0
  -43.2680  -21.2970   72.0370 N   0  0  0  1  0  0  0  0  0  0  0  0
  -42.9631  -22.0791   71.4753 H   0  0  0  1  0  0  0  0  0  0  0  0
  -42.9760  -21.3290   73.4430 C   0  0  0  1  0  0  0  0  0  0  0  0
  -42.1220  -21.9707   73.6596 H   0  0  0  1  0  0  0  0  0  0  0  0
  -42.7882  -20.3295   73.8353 H   0  0  0  1  0  0  0  0  0  0  0  0
  -44.2750  -21.9160   74.0000 C   0  0  0  1  0  0  0  0  0  0  0  0
  -44.6710  -23.2570   73.6750 C   0  0  0  1  0  0  0  0  0  0  0  0
  -44.0095  -23.8778   73.0890 H   0  0  0  1  0  0  0  0  0  0  0  0
  -45.9140  -23.7810   74.1090 C   0  0  0  1  0  0  0  0  0  0  0  0
  -46.2001  -24.7938   73.8667 H   0  0  0  1  0  0  0  0  0  0  0  0
  -46.7720  -22.9500   74.8660 C   0  0  0  1  0  0  0  0  0  0  0  0
  -48.0010  -23.3600   75.3380 O   0  0  0  1  0  0  0  0  0  0  0  0
  -48.4837  -22.6994   75.8401 H   0  0  0  1  0  0  0  0  0  0  0  0
  -46.3920  -21.6040   75.1900 C   0  0  0  1  0  0  0  0  0  0  0  0
  -47.0635  -20.9775   75.7583 H   0  0  0  1  0  0  0  0  0  0  0  0
  -45.1510  -21.0990   74.7710 C   0  0  0  1  0  0  0  0  0  0  0  0
  -44.8607  -20.0922   75.0329 H   0  0  0  1  0  0  0  0  0  0  0  0
  -44.2390  -19.1780   71.9410 O   0  0  0  1  0  0  0  0  0  0  0  0
  -44.8310  -19.3810   69.2410 N   0  0  0  1  0  0  0  0  0  0  0  0
  -45.3418  -18.7187   69.8071 H   0  0  0  1  0  0  0  0  0  0  0  0
  -44.6870  -19.1000   67.8890 C   0  0  0  1  0  0  0  0  0  0  0  0
  -44.0790  -19.8190   67.1090 O   0  0  0  1  0  0  0  0  0  0  0  0
  -45.4070  -17.8340   67.4640 C   0  0  0  1  0  0  0  0  0  0  0  0
  -45.5191  -17.1446   68.3008 H   0  0  0  1  0  0  0  0  0  0  0  0
  -46.7920  -18.2790   66.9880 C   0  0  0  1  0  0  0  0  0  0  0  0
  -47.9390  -17.9030   67.6910 C   0  0  0  1  0  0  0  0  0  0  0  0
  -47.8686  -17.2440   68.5437 H   0  0  0  1  0  0  0  0  0  0  0  0
  -49.1880  -18.3970   67.2700 C   0  0  0  1  0  0  0  0  0  0  0  0
  -50.0790  -18.1102   67.8088 H   0  0  0  1  0  0  0  0  0  0  0  0
  -46.9160  -19.1540   65.8530 C   0  0  0  1  0  0  0  0  0  0  0  0
  -46.0285  -19.4383   65.3071 H   0  0  0  1  0  0  0  0  0  0  0  0
  -48.1600  -19.6460   65.4390 C   0  0  0  1  0  0  0  0  0  0  0  0
  -48.2363  -20.3059   64.5875 H   0  0  0  1  0  0  0  0  0  0  0  0
  -49.3010  -19.2650   66.1510 C   0  0  0  1  0  0  0  0  0  0  0  0
  -50.2712  -19.6315   65.8496 H   0  0  0  1  0  0  0  0  0  0  0  0
  -44.6090  -16.9290   66.5050 C   0  0  0  1  0  0  0  0  0  0  0  0
  -43.2450  -16.6910   66.7460 C   0  0  0  1  0  0  0  0  0  0  0  0
  -42.7509  -17.1929   67.5647 H   0  0  0  1  0  0  0  0  0  0  0  0
  -42.5140  -15.8010   65.9270 C   0  0  0  1  0  0  0  0  0  0  0  0
  -41.4684  -15.6253   66.1325 H   0  0  0  1  0  0  0  0  0  0  0  0
  -43.1280  -15.1420   64.8500 C   0  0  0  1  0  0  0  0  0  0  0  0
  -42.5627  -14.4605   64.2316 H   0  0  0  1  0  0  0  0  0  0  0  0
  -44.4780  -15.3790   64.5890 C   0  0  0  1  0  0  0  0  0  0  0  0
  -44.9601  -14.8861   63.7577 H   0  0  0  1  0  0  0  0  0  0  0  0
  -45.2150  -16.2600   65.4070 C   0  0  0  1  0  0  0  0  0  0  0  0
  -46.2603  -16.4297   65.1951 H   0  0  0  1  0  0  0  0  0  0  0  0
  -56.6716  -15.6910   77.6138 O   0  0  0  1  0  0  0  0  0  0  0  0
  1  2  1  0  0  0  0
  1  3  1  0  0  0  0
  1  4  1  0  0  0  0
  1 14  1  0  0  0  0
  4  5  1  0  0  0  0
  4  6  1  0  0  0  0
  6  7  1  0  0  0  0
  6 92  2  0  0  0  0
  7  8  1  0  0  0  0
  7  9  1  0  0  0  0
  7 10  1  0  0  0  0
 10 11  1  0  0  0  0
 10 12  1  0  0  0  0
 10 13  1  0  0  0  0
 14 15  1  0  0  0  0
 14 16  1  0  0  0  0
 14 17  1  0  0  0  0
 17 18  1  0  0  0  0
 17 19  1  0  0  0  0
 17 20  1  0  0  0  0
 20 21  1  0  0  0  0
 20 22  1  0  0  0  0
 20 23  1  0  0  0  0
 23 24  1  0  0  0  0
 23 25  1  0  0  0  0
 25 26  2  0  0  0  0
 25 27  1  0  0  0  0
 27 28  1  0  0  0  0
 27 29  1  0  0  0  0
 29 30  1  0  0  0  0
 29 33  2  0  0  0  0
 30 31  1  0  0  0  0
 30 32  1  0  0  0  0
 33 34  1  0  0  0  0
 34 35  1  0  0  0  0
 34 36  1  0  0  0  0
 34 37  1  0  0  0  0
 37 38  1  0  0  0  0
 37 39  1  0  0  0  0
 37 40  1  0  0  0  0
 40 41  1  0  0  0  0
 40 42  1  0  0  0  0
 40 43  1  0  0  0  0
 43 44  1  0  0  0  0
 43 45  1  0  0  0  0
 43 64  1  0  0  0  0
 45 46  1  0  0  0  0
 45 63  2  0  0  0  0
 46 47  1  0  0  0  0
 46 48  1  0  0  0  0
 48 49  1  0  0  0  0
 48 50  1  0  0  0  0
 48 51  1  0  0  0  0
 51 52  1  0  0  0  0
 51 61  2  0  0  0  0
 52 53  1  0  0  0  0
 52 54  2  0  0  0  0
 54 55  1  0  0  0  0
 54 56  1  0  0  0  0
 56 57  1  0  0  0  0
 56 59  2  0  0  0  0
 57 58  1  0  0  0  0
 59 60  1  0  0  0  0
 59 61  1  0  0  0  0
 61 62  1  0  0  0  0
 64 65  1  0  0  0  0
 64 66  1  0  0  0  0
 66 67  2  0  0  0  0
 66 68  1  0  0  0  0
 68 69  1  0  0  0  0
 68 70  1  0  0  0  0
 68 81  1  0  0  0  0
 70 71  2  0  0  0  0
 70 75  1  0  0  0  0
 71 72  1  0  0  0  0
 71 73  1  0  0  0  0
 73 74  1  0  0  0  0
 73 79  2  0  0  0  0
 75 76  1  0  0  0  0
 75 77  2  0  0  0  0
 77 78  1  0  0  0  0
 77 79  1  0  0  0  0
 79 80  1  0  0  0  0
 81 82  1  0  0  0  0
 81 90  2  0  0  0  0
 82 83  1  0  0  0  0
 82 84  2  0  0  0  0
 84 85  1  0  0  0  0
 84 86  1  0  0  0  0
 86 87  1  0  0  0  0
 86 88  2  0  0  0  0
 88 89  1  0  0  0  0
 88 90  1  0  0  0  0
 90 91  1  0  0  0  0
M  END
> <ConfScore>
-0.716862 

> <SampleByParts>
10 7 6 92 4 1 14 17 20 23 25 26 27 29 30 33

$$$$
NPY1_MK299_12302016.pdb.B
  MOE2014           3D

 92 94  0  0  0  0  0  0  0  0999 V2000
  -54.5103  -17.2480   76.4141 C   0  0  0  1  0  0  0  0  0  0  0  0
  -54.5251  -16.3249   75.8276 H   0  0  0  1  0  0  0  0  0  0  0  0
  -55.3619  -17.8619   76.1027 H   0  0  0  1  0  0  0  0  0  0  0  0
  -54.7017  -16.9356   77.8218 N   0  0  0  1  0  0  0  0  0  0  0  0
  -53.9941  -17.2539   78.4733 H   0  0  0  1  0  0  0  0  0  0  0  0
  -55.7269  -16.2552   78.4211 C   0  0  0  1  0  0  0  0  0  0  0  0
  -55.6654  -16.0857   79.9269 C   0  0  0  1  0  0  0  0  0  0  0  0
  -55.9792  -15.0662   80.1760 H   0  0  0  1  0  0  0  0  0  0  0  0
  -54.6317  -16.2221   80.2599 H   0  0  0  1  0  0  0  0  0  0  0  0
  -56.5570  -17.0732   80.6583 C   0  0  0  1  0  0  0  0  0  0  0  0
  -56.4776  -16.9315   81.7405 H   0  0  0  1  0  0  0  0  0  0  0  0
  -56.2702  -18.1027   80.4256 H   0  0  0  1  0  0  0  0  0  0  0  0
  -57.6058  -16.9442   80.3719 H   0  0  0  1  0  0  0  0  0  0  0  0
  -53.2054  -18.0060   76.2045 C   0  0  0  1  0  0  0  0  0  0  0  0
  -52.3835  -17.4037   76.6064 H   0  0  0  1  0  0  0  0  0  0  0  0
  -53.2175  -18.9340   76.7901 H   0  0  0  1  0  0  0  0  0  0  0  0
  -52.9494  -18.3359   74.7269 C   0  0  0  1  0  0  0  0  0  0  0  0
  -53.7538  -18.9654   74.3464 H   0  0  0  1  0  0  0  0  0  0  0  0
  -52.9136  -17.4077   74.1565 H   0  0  0  1  0  0  0  0  0  0  0  0
  -51.5954  -19.0866   74.5607 C   0  0  0  1  0  0  0  0  0  0  0  0
  -51.6215  -20.0160   75.1296 H   0  0  0  1  0  0  0  0  0  0  0  0
  -50.7831  -18.4590   74.9272 H   0  0  0  1  0  0  0  0  0  0  0  0
  -51.3825  -19.3853   73.1444 N   0  0  0  1  0  0  0  0  0  0  0  0
  -52.1114  -19.0935   72.5091 H   0  0  0  1  0  0  0  0  0  0  0  0
  -50.2748  -20.0341   72.5701 C   0  0  0  1  0  0  0  0  0  0  0  0
  -49.3211  -20.3893   73.2827 O   0  0  0  1  0  0  0  0  0  0  0  0
  -50.4600  -20.2550   71.1740 N   0  0  0  1  0  0  0  0  0  0  0  0
  -51.3102  -19.8599   70.7983 H   0  0  0  1  0  0  0  0  0  0  0  0
  -49.6900  -20.9060   70.2590 C   0  0  0  1  0  0  0  0  0  0  0  0
  -50.2570  -20.8250   69.0000 N   0  0  0  1  0  0  0  0  0  0  0  0
  -49.8842  -21.3783   68.2417 H   0  0  0  1  0  0  0  0  0  0  0  0
  -51.0438  -20.2125   68.8389 H   0  0  0  1  0  0  0  0  0  0  0  0
  -48.6290  -21.7900   70.2920 N   0  0  0  1  0  0  0  0  0  0  0  0
  -47.7070  -22.1200   71.3230 C   0  0  0  1  0  0  0  0  0  0  0  0
  -48.1435  -21.9395   72.3054 H   0  0  0  1  0  0  0  0  0  0  0  0
  -47.3992  -23.1630   71.2482 H   0  0  0  1  0  0  0  0  0  0  0  0
  -46.5220  -21.1840   71.0740 C   0  0  0  1  0  0  0  0  0  0  0  0
  -46.9258  -20.2178   70.7716 H   0  0  0  1  0  0  0  0  0  0  0  0
  -45.9869  -21.0750   72.0173 H   0  0  0  1  0  0  0  0  0  0  0  0
  -45.4860  -21.6160   69.9960 C   0  0  0  1  0  0  0  0  0  0  0  0
  -45.9831  -21.6765   69.0278 H   0  0  0  1  0  0  0  0  0  0  0  0
  -45.0840  -22.5942   70.2597 H   0  0  0  1  0  0  0  0  0  0  0  0
  -44.2930  -20.5720   69.9030 C   0  0  0  1  0  0  0  0  0  0  0  0
  -43.4175  -20.9189   69.3542 H   0  0  0  1  0  0  0  0  0  0  0  0
  -43.9430  -20.2610   71.3950 C   0  0  0  1  0  0  0  0  0  0  0  0
  -43.2680  -21.2970   72.0370 N   0  0  0  1  0  0  0  0  0  0  0  0
  -42.9631  -22.0791   71.4753 H   0  0  0  1  0  0  0  0  0  0  0  0
  -42.9760  -21.3290   73.4430 C   0  0  0  1  0  0  0  0  0  0  0  0
  -42.1220  -21.9707   73.6596 H   0  0  0  1  0  0  0  0  0  0  0  0
  -42.7882  -20.3295   73.8353 H   0  0  0  1  0  0  0  0  0  0  0  0
  -44.2750  -21.9160   74.0000 C   0  0  0  1  0  0  0  0  0  0  0  0
  -44.6710  -23.2570   73.6750 C   0  0  0  1  0  0  0  0  0  0  0  0
  -44.0095  -23.8778   73.0890 H   0  0  0  1  0  0  0  0  0  0  0  0
  -45.9140  -23.7810   74.1090 C   0  0  0  1  0  0  0  0  0  0  0  0
  -46.2001  -24.7938   73.8667 H   0  0  0  1  0  0  0  0  0  0  0  0
  -46.7720  -22.9500   74.8660 C   0  0  0  1  0  0  0  0  0  0  0  0
  -48.0010  -23.3600   75.3380 O   0  0  0  1  0  0  0  0  0  0  0  0
  -48.4837  -22.6994   75.8401 H   0  0  0  1  0  0  0  0  0  0  0  0
  -46.3920  -21.6040   75.1900 C   0  0  0  1  0  0  0  0  0  0  0  0
  -47.0635  -20.9775   75.7583 H   0  0  0  1  0  0  0  0  0  0  0  0
  -45.1510  -21.0990   74.7710 C   0  0  0  1  0  0  0  0  0  0  0  0
  -44.8607  -20.0922   75.0329 H   0  0  0  1  0  0  0  0  0  0  0  0
  -44.2390  -19.1780   71.9410 O   0  0  0  1  0  0  0  0  0  0  0  0
  -44.8310  -19.3810   69.2410 N   0  0  0  1  0  0  0  0  0  0  0  0
  -45.3418  -18.7187   69.8071 H   0  0  0  1  0  0  0  0  0  0  0  0
  -44.6870  -19.1000   67.8890 C   0  0  0  1  0  0  0  0  0  0  0  0
  -44.0790  -19.8190   67.1090 O   0  0  0  1  0  0  0  0  0  0  0  0
  -45.4070  -17.8340   67.4640 C   0  0  0  1  0  0  0  0  0  0  0  0
  -45.5191  -17.1446   68.3008 H   0  0  0  1  0  0  0  0  0  0  0  0
  -46.7920  -18.2790   66.9880 C   0  0  0  1  0  0  0  0  0  0  0  0
  -47.9390  -17.9030   67.6910 C   0  0  0  1  0  0  0  0  0  0  0  0
  -47.8686  -17.2440   68.5437 H   0  0  0  1  0  0  0  0  0  0  0  0
  -49.1880  -18.3970   67.2700 C   0  0  0  1  0  0  0  0  0  0  0  0
  -50.0790  -18.1102   67.8088 H   0  0  0  1  0  0  0  0  0  0  0  0
  -46.9160  -19.1540   65.8530 C   0  0  0  1  0  0  0  0  0  0  0  0
  -46.0285  -19.4383   65.3071 H   0  0  0  1  0  0  0  0  0  0  0  0
  -48.1600  -19.6460   65.4390 C   0  0  0  1  0  0  0  0  0  0  0  0
  -48.2363  -20.3059   64.5875 H   0  0  0  1  0  0  0  0  0  0  0  0
  -49.3010  -19.2650   66.1510 C   0  0  0  1  0  0  0  0  0  0  0  0
  -50.2712  -19.6315   65.8496 H   0  0  0  1  0  0  0  0  0  0  0  0
  -44.6090  -16.9290   66.5050 C   0  0  0  1  0  0  0  0  0  0  0  0
  -43.2450  -16.6910   66.7460 C   0  0  0  1  0  0  0  0  0  0  0  0
  -42.7509  -17.1929   67.5647 H   0  0  0  1  0  0  0  0  0  0  0  0
  -42.5140  -15.8010   65.9270 C   0  0  0  1  0  0  0  0  0  0  0  0
  -41.4684  -15.6253   66.1325 H   0  0  0  1  0  0  0  0  0  0  0  0
  -43.1280  -15.1420   64.8500 C   0  0  0  1  0  0  0  0  0  0  0  0
  -42.5627  -14.4605   64.2316 H   0  0  0  1  0  0  0  0  0  0  0  0
  -44.4780  -15.3790   64.5890 C   0  0  0  1  0  0  0  0  0  0  0  0
  -44.9601  -14.8861   63.7577 H   0  0  0  1  0  0  0  0  0  0  0  0
  -45.2150  -16.2600   65.4070 C   0  0  0  1  0  0  0  0  0  0  0  0
  -46.2603  -16.4297   65.1951 H   0  0  0  1  0  0  0  0  0  0  0  0
  -56.6362  -15.8053   77.7252 O   0  0  0  1  0  0  0  0  0  0  0  0
  1  2  1  0  0  0  0
  1  3  1  0  0  0  0
  1  4  1  0  0  0  0
  1 14  1  0  0  0  0
  4  5  1  0  0  0  0
  4  6  1  0  0  0  0
  6  7  1  0  0  0  0
  6 92  2  0  0  0  0
  7  8  1  0  0  0  0
  7  9  1  0  0  0  0
  7 10  1  0  0  0  0
 10 11  1  0  0  0  0
 10 12  1  0  0  0  0
 10 13  1  0  0  0  0
 14 15  1  0  0  0  0
 14 16  1  0  0  0  0
 14 17  1  0  0  0  0
 17 18  1  0  0  0  0
 17 19  1  0  0  0  0
 17 20  1  0  0  0  0
 20 21  1  0  0  0  0
 20 22  1  0  0  0  0
 20 23  1  0  0  0  0
 23 24  1  0  0  0  0
 23 25  1  0  0  0  0
 25 26  2  0  0  0  0
 25 27  1  0  0  0  0
 27 28  1  0  0  0  0
 27 29  1  0  0  0  0
 29 30  1  0  0  0  0
 29 33  2  0  0  0  0
 30 31  1  0  0  0  0
 30 32  1  0  0  0  0
 33 34  1  0  0  0  0
 34 35  1  0  0  0  0
 34 36  1  0  0  0  0
 34 37  1  0  0  0  0
 37 38  1  0  0  0  0
 37 39  1  0  0  0  0
 37 40  1  0  0  0  0
 40 41  1  0  0  0  0
 40 42  1  0  0  0  0
 40 43  1  0  0  0  0
 43 44  1  0  0  0  0
 43 45  1  0  0  0  0
 43 64  1  0  0  0  0
 45 46  1  0  0  0  0
 45 63  2  0  0  0  0
 46 47  1  0  0  0  0
 46 48  1  0  0  0  0
 48 49  1  0  0  0  0
 48 50  1  0  0  0  0
 48 51  1  0  0  0  0
 51 52  1  0  0  0  0
 51 61  2  0  0  0  0
 52 53  1  0  0  0  0
 52 54  2  0  0  0  0
 54 55  1  0  0  0  0
 54 56  1  0  0  0  0
 56 57  1  0  0  0  0
 56 59  2  0  0  0  0
 57 58  1  0  0  0  0
 59 60  1  0  0  0  0
 59 61  1  0  0  0  0
 61 62  1  0  0  0  0
 64 65  1  0  0  0  0
 64 66  1  0  0  0  0
 66 67  2  0  0  0  0
 66 68  1  0  0  0  0
 68 69  1  0  0  0  0
 68 70  1  0  0  0  0
 68 81  1  0  0  0  0
 70 71  2  0  0  0  0
 70 75  1  0  0  0  0
 71 72  1  0  0  0  0
 71 73  1  0  0  0  0
 73 74  1  0  0  0  0
 73 79  2  0  0  0  0
 75 76  1  0  0  0  0
 75 77  2  0  0  0  0
 77 78  1  0  0  0  0
 77 79  1  0  0  0  0
 79 80  1  0  0  0  0
 81 82  1  0  0  0  0
 81 90  2  0  0  0  0
 82 83  1  0  0  0  0
 82 84  2  0  0  0  0
 84 85  1  0  0  0  0
 84 86  1  0  0  0  0
 86 87  1  0  0  0  0
 86 88  2  0  0  0  0
 88 89  1  0  0  0  0
 88 90  1  0  0  0  0
 90 91  1  0  0  0  0
M  END
> <ConfScore>
-0.716862 

> <SampleByParts>
10 7 6 92 4 1 14 17 20 23 25 26 27 29 30 33

$$$$
NPY1_MK299_12302016.pdb.B
  MOE2014           3D

 92 94  0  0  0  0  0  0  0  0999 V2000
  -54.4872  -17.0927   76.3408 C   0  0  0  1  0  0  0  0  0  0  0  0
  -54.2437  -16.1471   75.8481 H   0  0  0  1  0  0  0  0  0  0  0  0
  -55.4175  -17.4727   75.9056 H   0  0  0  1  0  0  0  0  0  0  0  0
  -54.7424  -16.8564   77.7532 N   0  0  0  1  0  0  0  0  0  0  0  0
  -54.1369  -17.3164   78.4226 H   0  0  0  1  0  0  0  0  0  0  0  0
  -55.7088  -16.0819   78.3357 C   0  0  0  1  0  0  0  0  0  0  0  0
  -55.7266  -16.0107   79.8505 C   0  0  0  1  0  0  0  0  0  0  0  0
  -55.9515  -14.9809   80.1484 H   0  0  0  1  0  0  0  0  0  0  0  0
  -54.7352  -16.2740   80.2322 H   0  0  0  1  0  0  0  0  0  0  0  0
  -56.7577  -16.9420   80.4625 C   0  0  0  1  0  0  0  0  0  0  0  0
  -56.7335  -16.8747   81.5545 H   0  0  0  1  0  0  0  0  0  0  0  0
  -56.5616  -17.9799   80.1787 H   0  0  0  1  0  0  0  0  0  0  0  0
  -57.7678  -16.6873   80.1259 H   0  0  0  1  0  0  0  0  0  0  0  0
  -53.3644  -18.1065   76.1599 C   0  0  0  1  0  0  0  0  0  0  0  0
  -52.4971  -17.7739   76.7403 H   0  0  0  1  0  0  0  0  0  0  0  0
  -53.6643  -19.0720   76.5866 H   0  0  0  1  0  0  0  0  0  0  0  0
  -52.9768  -18.2960   74.6862 C   0  0  0  1  0  0  0  0  0  0  0  0
  -53.8363  -18.6616   74.1245 H   0  0  0  1  0  0  0  0  0  0  0  0
  -52.6563  -17.3379   74.2770 H   0  0  0  1  0  0  0  0  0  0  0  0
  -51.8113  -19.3199   74.5545 C   0  0  0  1  0  0  0  0  0  0  0  0
  -52.1225  -20.2813   74.9632 H   0  0  0  1  0  0  0  0  0  0  0  0
  -50.9425  -18.9561   75.1031 H   0  0  0  1  0  0  0  0  0  0  0  0
  -51.4673  -19.4770   73.1412 N   0  0  0  1  0  0  0  0  0  0  0  0
  -52.0250  -18.9531   72.4821 H   0  0  0  1  0  0  0  0  0  0  0  0
  -50.4456  -20.2771   72.5993 C   0  0  0  1  0  0  0  0  0  0  0  0
  -49.7055  -20.9363   73.3484 O   0  0  0  1  0  0  0  0  0  0  0  0
  -50.4600  -20.2550   71.1740 N   0  0  0  1  0  0  0  0  0  0  0  0
  -51.1638  -19.6515   70.7732 H   0  0  0  1  0  0  0  0  0  0  0  0
  -49.6900  -20.9060   70.2590 C   0  0  0  1  0  0  0  0  0  0  0  0
  -50.2570  -20.8250   69.0000 N   0  0  0  1  0  0  0  0  0  0  0  0
  -49.8842  -21.3783   68.2417 H   0  0  0  1  0  0  0  0  0  0  0  0
  -51.0438  -20.2125   68.8389 H   0  0  0  1  0  0  0  0  0  0  0  0
  -48.6290  -21.7900   70.2920 N   0  0  0  1  0  0  0  0  0  0  0  0
  -47.7070  -22.1200   71.3230 C   0  0  0  1  0  0  0  0  0  0  0  0
  -48.1435  -21.9395   72.3054 H   0  0  0  1  0  0  0  0  0  0  0  0
  -47.3992  -23.1630   71.2482 H   0  0  0  1  0  0  0  0  0  0  0  0
  -46.5220  -21.1840   71.0740 C   0  0  0  1  0  0  0  0  0  0  0  0
  -46.9258  -20.2178   70.7716 H   0  0  0  1  0  0  0  0  0  0  0  0
  -45.9869  -21.0750   72.0173 H   0  0  0  1  0  0  0  0  0  0  0  0
  -45.4860  -21.6160   69.9960 C   0  0  0  1  0  0  0  0  0  0  0  0
  -45.9831  -21.6765   69.0278 H   0  0  0  1  0  0  0  0  0  0  0  0
  -45.0840  -22.5942   70.2597 H   0  0  0  1  0  0  0  0  0  0  0  0
  -44.2930  -20.5720   69.9030 C   0  0  0  1  0  0  0  0  0  0  0  0
  -43.4175  -20.9189   69.3542 H   0  0  0  1  0  0  0  0  0  0  0  0
  -43.9430  -20.2610   71.3950 C   0  0  0  1  0  0  0  0  0  0  0  0
  -43.2680  -21.2970   72.0370 N   0  0  0  1  0  0  0  0  0  0  0  0
  -42.9631  -22.0791   71.4753 H   0  0  0  1  0  0  0  0  0  0  0  0
  -42.9760  -21.3290   73.4430 C   0  0  0  1  0  0  0  0  0  0  0  0
  -42.1220  -21.9707   73.6596 H   0  0  0  1  0  0  0  0  0  0  0  0
  -42.7882  -20.3295   73.8353 H   0  0  0  1  0  0  0  0  0  0  0  0
  -44.2750  -21.9160   74.0000 C   0  0  0  1  0  0  0  0  0  0  0  0
  -44.6710  -23.2570   73.6750 C   0  0  0  1  0  0  0  0  0  0  0  0
  -44.0095  -23.8778   73.0890 H   0  0  0  1  0  0  0  0  0  0  0  0
  -45.9140  -23.7810   74.1090 C   0  0  0  1  0  0  0  0  0  0  0  0
  -46.2001  -24.7938   73.8667 H   0  0  0  1  0  0  0  0  0  0  0  0
  -46.7720  -22.9500   74.8660 C   0  0  0  1  0  0  0  0  0  0  0  0
  -48.0010  -23.3600   75.3380 O   0  0  0  1  0  0  0  0  0  0  0  0
  -48.4837  -22.6994   75.8401 H   0  0  0  1  0  0  0  0  0  0  0  0
  -46.3920  -21.6040   75.1900 C   0  0  0  1  0  0  0  0  0  0  0  0
  -47.0635  -20.9775   75.7583 H   0  0  0  1  0  0  0  0  0  0  0  0
  -45.1510  -21.0990   74.7710 C   0  0  0  1  0  0  0  0  0  0  0  0
  -44.8607  -20.0922   75.0329 H   0  0  0  1  0  0  0  0  0  0  0  0
  -44.2390  -19.1780   71.9410 O   0  0  0  1  0  0  0  0  0  0  0  0
  -44.8310  -19.3810   69.2410 N   0  0  0  1  0  0  0  0  0  0  0  0
  -45.3418  -18.7187   69.8071 H   0  0  0  1  0  0  0  0  0  0  0  0
  -44.6870  -19.1000   67.8890 C   0  0  0  1  0  0  0  0  0  0  0  0
  -44.0790  -19.8190   67.1090 O   0  0  0  1  0  0  0  0  0  0  0  0
  -45.4070  -17.8340   67.4640 C   0  0  0  1  0  0  0  0  0  0  0  0
  -45.5191  -17.1446   68.3008 H   0  0  0  1  0  0  0  0  0  0  0  0
  -46.7920  -18.2790   66.9880 C   0  0  0  1  0  0  0  0  0  0  0  0
  -47.9390  -17.9030   67.6910 C   0  0  0  1  0  0  0  0  0  0  0  0
  -47.8686  -17.2440   68.5437 H   0  0  0  1  0  0  0  0  0  0  0  0
  -49.1880  -18.3970   67.2700 C   0  0  0  1  0  0  0  0  0  0  0  0
  -50.0790  -18.1102   67.8088 H   0  0  0  1  0  0  0  0  0  0  0  0
  -46.9160  -19.1540   65.8530 C   0  0  0  1  0  0  0  0  0  0  0  0
  -46.0285  -19.4383   65.3071 H   0  0  0  1  0  0  0  0  0  0  0  0
  -48.1600  -19.6460   65.4390 C   0  0  0  1  0  0  0  0  0  0  0  0
  -48.2363  -20.3059   64.5875 H   0  0  0  1  0  0  0  0  0  0  0  0
  -49.3010  -19.2650   66.1510 C   0  0  0  1  0  0  0  0  0  0  0  0
  -50.2712  -19.6315   65.8496 H   0  0  0  1  0  0  0  0  0  0  0  0
  -44.6090  -16.9290   66.5050 C   0  0  0  1  0  0  0  0  0  0  0  0
  -43.2450  -16.6910   66.7460 C   0  0  0  1  0  0  0  0  0  0  0  0
  -42.7509  -17.1929   67.5647 H   0  0  0  1  0  0  0  0  0  0  0  0
  -42.5140  -15.8010   65.9270 C   0  0  0  1  0  0  0  0  0  0  0  0
  -41.4684  -15.6253   66.1325 H   0  0  0  1  0  0  0  0  0  0  0  0
  -43.1280  -15.1420   64.8500 C   0  0  0  1  0  0  0  0  0  0  0  0
  -42.5627  -14.4605   64.2316 H   0  0  0  1  0  0  0  0  0  0  0  0
  -44.4780  -15.3790   64.5890 C   0  0  0  1  0  0  0  0  0  0  0  0
  -44.9601  -14.8861   63.7577 H   0  0  0  1  0  0  0  0  0  0  0  0
  -45.2150  -16.2600   65.4070 C   0  0  0  1  0  0  0  0  0  0  0  0
  -46.2603  -16.4297   65.1951 H   0  0  0  1  0  0  0  0  0  0  0  0
  -56.5040  -15.4750   77.6195 O   0  0  0  1  0  0  0  0  0  0  0  0
  1  2  1  0  0  0  0
  1  3  1  0  0  0  0
  1  4  1  0  0  0  0
  1 14  1  0  0  0  0
  4  5  1  0  0  0  0
  4  6  1  0  0  0  0
  6  7  1  0  0  0  0
  6 92  2  0  0  0  0
  7  8  1  0  0  0  0
  7  9  1  0  0  0  0
  7 10  1  0  0  0  0
 10 11  1  0  0  0  0
 10 12  1  0  0  0  0
 10 13  1  0  0  0  0
 14 15  1  0  0  0  0
 14 16  1  0  0  0  0
 14 17  1  0  0  0  0
 17 18  1  0  0  0  0
 17 19  1  0  0  0  0
 17 20  1  0  0  0  0
 20 21  1  0  0  0  0
 20 22  1  0  0  0  0
 20 23  1  0  0  0  0
 23 24  1  0  0  0  0
 23 25  1  0  0  0  0
 25 26  2  0  0  0  0
 25 27  1  0  0  0  0
 27 28  1  0  0  0  0
 27 29  1  0  0  0  0
 29 30  1  0  0  0  0
 29 33  2  0  0  0  0
 30 31  1  0  0  0  0
 30 32  1  0  0  0  0
 33 34  1  0  0  0  0
 34 35  1  0  0  0  0
 34 36  1  0  0  0  0
 34 37  1  0  0  0  0
 37 38  1  0  0  0  0
 37 39  1  0  0  0  0
 37 40  1  0  0  0  0
 40 41  1  0  0  0  0
 40 42  1  0  0  0  0
 40 43  1  0  0  0  0
 43 44  1  0  0  0  0
 43 45  1  0  0  0  0
 43 64  1  0  0  0  0
 45 46  1  0  0  0  0
 45 63  2  0  0  0  0
 46 47  1  0  0  0  0
 46 48  1  0  0  0  0
 48 49  1  0  0  0  0
 48 50  1  0  0  0  0
 48 51  1  0  0  0  0
 51 52  1  0  0  0  0
 51 61  2  0  0  0  0
 52 53  1  0  0  0  0
 52 54  2  0  0  0  0
 54 55  1  0  0  0  0
 54 56  1  0  0  0  0
 56 57  1  0  0  0  0
 56 59  2  0  0  0  0
 57 58  1  0  0  0  0
 59 60  1  0  0  0  0
 59 61  1  0  0  0  0
 61 62  1  0  0  0  0
 64 65  1  0  0  0  0
 64 66  1  0  0  0  0
 66 67  2  0  0  0  0
 66 68  1  0  0  0  0
 68 69  1  0  0  0  0
 68 70  1  0  0  0  0
 68 81  1  0  0  0  0
 70 71  2  0  0  0  0
 70 75  1  0  0  0  0
 71 72  1  0  0  0  0
 71 73  1  0  0  0  0
 73 74  1  0  0  0  0
 73 79  2  0  0  0  0
 75 76  1  0  0  0  0
 75 77  2  0  0  0  0
 77 78  1  0  0  0  0
 77 79  1  0  0  0  0
 79 80  1  0  0  0  0
 81 82  1  0  0  0  0
 81 90  2  0  0  0  0
 82 83  1  0  0  0  0
 82 84  2  0  0  0  0
 84 85  1  0  0  0  0
 84 86  1  0  0  0  0
 86 87  1  0  0  0  0
 86 88  2  0  0  0  0
 88 89  1  0  0  0  0
 88 90  1  0  0  0  0
 90 91  1  0  0  0  0
M  END
> <ConfScore>
-0.716862 

> <SampleByParts>
10 7 6 92 4 1 14 17 20 23 25 26 27 29 30 33

$$$$
NPY1_MK299_12302016.pdb.B
  MOE2014           3D

 92 94  0  0  0  0  0  0  0  0999 V2000
  -54.8679  -16.7707   75.7930 C   0  0  0  1  0  0  0  0  0  0  0  0
  -54.9520  -17.6990   76.3652 H   0  0  0  1  0  0  0  0  0  0  0  0
  -54.0093  -16.2108   76.1783 H   0  0  0  1  0  0  0  0  0  0  0  0
  -56.0477  -15.9498   76.0173 N   0  0  0  1  0  0  0  0  0  0  0  0
  -56.5895  -15.6758   75.2063 H   0  0  0  1  0  0  0  0  0  0  0  0
  -56.5543  -15.4744   77.1965 C   0  0  0  1  0  0  0  0  0  0  0  0
  -57.8224  -14.6454   77.1271 C   0  0  0  1  0  0  0  0  0  0  0  0
  -58.5922  -15.1346   77.7335 H   0  0  0  1  0  0  0  0  0  0  0  0
  -58.1689  -14.6087   76.0895 H   0  0  0  1  0  0  0  0  0  0  0  0
  -57.6170  -13.2285   77.6323 C   0  0  0  1  0  0  0  0  0  0  0  0
  -58.5467  -12.6565   77.5553 H   0  0  0  1  0  0  0  0  0  0  0  0
  -56.8489  -12.7144   77.0477 H   0  0  0  1  0  0  0  0  0  0  0  0
  -57.2990  -13.2260   78.6800 H   0  0  0  1  0  0  0  0  0  0  0  0
  -54.6890  -17.0600   74.3080 C   0  0  0  1  0  0  0  0  0  0  0  0
  -55.5926  -17.5561   73.9377 H   0  0  0  1  0  0  0  0  0  0  0  0
  -54.6107  -16.1163   73.7532 H   0  0  0  1  0  0  0  0  0  0  0  0
  -53.4530  -17.9255   74.0236 C   0  0  0  1  0  0  0  0  0  0  0  0
  -52.5577  -17.4152   74.3786 H   0  0  0  1  0  0  0  0  0  0  0  0
  -53.5587  -18.8777   74.5435 H   0  0  0  1  0  0  0  0  0  0  0  0
  -53.3127  -18.1936   72.4963 C   0  0  0  1  0  0  0  0  0  0  0  0
  -53.2082  -17.2461   71.9677 H   0  0  0  1  0  0  0  0  0  0  0  0
  -54.1987  -18.7155   72.1347 H   0  0  0  1  0  0  0  0  0  0  0  0
  -52.1280  -19.0191   72.2603 N   0  0  0  1  0  0  0  0  0  0  0  0
  -51.5871  -19.2720   73.0749 H   0  0  0  1  0  0  0  0  0  0  0  0
  -51.6594  -19.4991   71.0244 C   0  0  0  1  0  0  0  0  0  0  0  0
  -52.2504  -19.1989   69.9736 O   0  0  0  1  0  0  0  0  0  0  0  0
  -50.4600  -20.2550   71.1740 N   0  0  0  1  0  0  0  0  0  0  0  0
  -50.1228  -20.3188   72.1239 H   0  0  0  1  0  0  0  0  0  0  0  0
  -49.6900  -20.9060   70.2590 C   0  0  0  1  0  0  0  0  0  0  0  0
  -50.2570  -20.8250   69.0000 N   0  0  0  1  0  0  0  0  0  0  0  0
  -49.8842  -21.3783   68.2417 H   0  0  0  1  0  0  0  0  0  0  0  0
  -51.0438  -20.2125   68.8389 H   0  0  0  1  0  0  0  0  0  0  0  0
  -48.6290  -21.7900   70.2920 N   0  0  0  1  0  0  0  0  0  0  0  0
  -47.7070  -22.1200   71.3230 C   0  0  0  1  0  0  0  0  0  0  0  0
  -48.1435  -21.9395   72.3054 H   0  0  0  1  0  0  0  0  0  0  0  0
  -47.3992  -23.1630   71.2482 H   0  0  0  1  0  0  0  0  0  0  0  0
  -46.5220  -21.1840   71.0740 C   0  0  0  1  0  0  0  0  0  0  0  0
  -46.9258  -20.2178   70.7716 H   0  0  0  1  0  0  0  0  0  0  0  0
  -45.9869  -21.0750   72.0173 H   0  0  0  1  0  0  0  0  0  0  0  0
  -45.4860  -21.6160   69.9960 C   0  0  0  1  0  0  0  0  0  0  0  0
  -45.9831  -21.6765   69.0278 H   0  0  0  1  0  0  0  0  0  0  0  0
  -45.0840  -22.5942   70.2597 H   0  0  0  1  0  0  0  0  0  0  0  0
  -44.2930  -20.5720   69.9030 C   0  0  0  1  0  0  0  0  0  0  0  0
  -43.4175  -20.9189   69.3542 H   0  0  0  1  0  0  0  0  0  0  0  0
  -43.9430  -20.2610   71.3950 C   0  0  0  1  0  0  0  0  0  0  0  0
  -43.2680  -21.2970   72.0370 N   0  0  0  1  0  0  0  0  0  0  0  0
  -42.9631  -22.0791   71.4753 H   0  0  0  1  0  0  0  0  0  0  0  0
  -42.9760  -21.3290   73.4430 C   0  0  0  1  0  0  0  0  0  0  0  0
  -42.1220  -21.9707   73.6596 H   0  0  0  1  0  0  0  0  0  0  0  0
  -42.7882  -20.3295   73.8353 H   0  0  0  1  0  0  0  0  0  0  0  0
  -44.2750  -21.9160   74.0000 C   0  0  0  1  0  0  0  0  0  0  0  0
  -44.6710  -23.2570   73.6750 C   0  0  0  1  0  0  0  0  0  0  0  0
  -44.0095  -23.8778   73.0890 H   0  0  0  1  0  0  0  0  0  0  0  0
  -45.9140  -23.7810   74.1090 C   0  0  0  1  0  0  0  0  0  0  0  0
  -46.2001  -24.7938   73.8667 H   0  0  0  1  0  0  0  0  0  0  0  0
  -46.7720  -22.9500   74.8660 C   0  0  0  1  0  0  0  0  0  0  0  0
  -48.0010  -23.3600   75.3380 O   0  0  0  1  0  0  0  0  0  0  0  0
  -48.4837  -22.6994   75.8401 H   0  0  0  1  0  0  0  0  0  0  0  0
  -46.3920  -21.6040   75.1900 C   0  0  0  1  0  0  0  0  0  0  0  0
  -47.0635  -20.9775   75.7583 H   0  0  0  1  0  0  0  0  0  0  0  0
  -45.1510  -21.0990   74.7710 C   0  0  0  1  0  0  0  0  0  0  0  0
  -44.8607  -20.0922   75.0329 H   0  0  0  1  0  0  0  0  0  0  0  0
  -44.2390  -19.1780   71.9410 O   0  0  0  1  0  0  0  0  0  0  0  0
  -44.8310  -19.3810   69.2410 N   0  0  0  1  0  0  0  0  0  0  0  0
  -45.3418  -18.7187   69.8071 H   0  0  0  1  0  0  0  0  0  0  0  0
  -44.6870  -19.1000   67.8890 C   0  0  0  1  0  0  0  0  0  0  0  0
  -44.0790  -19.8190   67.1090 O   0  0  0  1  0  0  0  0  0  0  0  0
  -45.4070  -17.8340   67.4640 C   0  0  0  1  0  0  0  0  0  0  0  0
  -45.5191  -17.1446   68.3008 H   0  0  0  1  0  0  0  0  0  0  0  0
  -46.7920  -18.2790   66.9880 C   0  0  0  1  0  0  0  0  0  0  0  0
  -47.9390  -17.9030   67.6910 C   0  0  0  1  0  0  0  0  0  0  0  0
  -47.8686  -17.2440   68.5437 H   0  0  0  1  0  0  0  0  0  0  0  0
  -49.1880  -18.3970   67.2700 C   0  0  0  1  0  0  0  0  0  0  0  0
  -50.0790  -18.1102   67.8088 H   0  0  0  1  0  0  0  0  0  0  0  0
  -46.9160  -19.1540   65.8530 C   0  0  0  1  0  0  0  0  0  0  0  0
  -46.0285  -19.4383   65.3071 H   0  0  0  1  0  0  0  0  0  0  0  0
  -48.1600  -19.6460   65.4390 C   0  0  0  1  0  0  0  0  0  0  0  0
  -48.2363  -20.3059   64.5875 H   0  0  0  1  0  0  0  0  0  0  0  0
  -49.3010  -19.2650   66.1510 C   0  0  0  1  0  0  0  0  0  0  0  0
  -50.2712  -19.6315   65.8496 H   0  0  0  1  0  0  0  0  0  0  0  0
  -44.6090  -16.9290   66.5050 C   0  0  0  1  0  0  0  0  0  0  0  0
  -43.2450  -16.6910   66.7460 C   0  0  0  1  0  0  0  0  0  0  0  0
  -42.7509  -17.1929   67.5647 H   0  0  0  1  0  0  0  0  0  0  0  0
  -42.5140  -15.8010   65.9270 C   0  0  0  1  0  0  0  0  0  0  0  0
  -41.4684  -15.6253   66.1325 H   0  0  0  1  0  0  0  0  0  0  0  0
  -43.1280  -15.1420   64.8500 C   0  0  0  1  0  0  0  0  0  0  0  0
  -42.5627  -14.4605   64.2316 H   0  0  0  1  0  0  0  0  0  0  0  0
  -44.4780  -15.3790   64.5890 C   0  0  0  1  0  0  0  0  0  0  0  0
  -44.9601  -14.8861   63.7577 H   0  0  0  1  0  0  0  0  0  0  0  0
  -45.2150  -16.2600   65.4070 C   0  0  0  1  0  0  0  0  0  0  0  0
  -46.2603  -16.4297   65.1951 H   0  0  0  1  0  0  0  0  0  0  0  0
  -55.9776  -15.7435   78.2493 O   0  0  0  1  0  0  0  0  0  0  0  0
  1  2  1  0  0  0  0
  1  3  1  0  0  0  0
  1  4  1  0  0  0  0
  1 14  1  0  0  0  0
  4  5  1  0  0  0  0
  4  6  1  0  0  0  0
  6  7  1  0  0  0  0
  6 92  2  0  0  0  0
  7  8  1  0  0  0  0
  7  9  1  0  0  0  0
  7 10  1  0  0  0  0
 10 11  1  0  0  0  0
 10 12  1  0  0  0  0
 10 13  1  0  0  0  0
 14 15  1  0  0  0  0
 14 16  1  0  0  0  0
 14 17  1  0  0  0  0
 17 18  1  0  0  0  0
 17 19  1  0  0  0  0
 17 20  1  0  0  0  0
 20 21  1  0  0  0  0
 20 22  1  0  0  0  0
 20 23  1  0  0  0  0
 23 24  1  0  0  0  0
 23 25  1  0  0  0  0
 25 26  2  0  0  0  0
 25 27  1  0  0  0  0
 27 28  1  0  0  0  0
 27 29  1  0  0  0  0
 29 30  1  0  0  0  0
 29 33  2  0  0  0  0
 30 31  1  0  0  0  0
 30 32  1  0  0  0  0
 33 34  1  0  0  0  0
 34 35  1  0  0  0  0
 34 36  1  0  0  0  0
 34 37  1  0  0  0  0
 37 38  1  0  0  0  0
 37 39  1  0  0  0  0
 37 40  1  0  0  0  0
 40 41  1  0  0  0  0
 40 42  1  0  0  0  0
 40 43  1  0  0  0  0
 43 44  1  0  0  0  0
 43 45  1  0  0  0  0
 43 64  1  0  0  0  0
 45 46  1  0  0  0  0
 45 63  2  0  0  0  0
 46 47  1  0  0  0  0
 46 48  1  0  0  0  0
 48 49  1  0  0  0  0
 48 50  1  0  0  0  0
 48 51  1  0  0  0  0
 51 52  1  0  0  0  0
 51 61  2  0  0  0  0
 52 53  1  0  0  0  0
 52 54  2  0  0  0  0
 54 55  1  0  0  0  0
 54 56  1  0  0  0  0
 56 57  1  0  0  0  0
 56 59  2  0  0  0  0
 57 58  1  0  0  0  0
 59 60  1  0  0  0  0
 59 61  1  0  0  0  0
 61 62  1  0  0  0  0
 64 65  1  0  0  0  0
 64 66  1  0  0  0  0
 66 67  2  0  0  0  0
 66 68  1  0  0  0  0
 68 69  1  0  0  0  0
 68 70  1  0  0  0  0
 68 81  1  0  0  0  0
 70 71  2  0  0  0  0
 70 75  1  0  0  0  0
 71 72  1  0  0  0  0
 71 73  1  0  0  0  0
 73 74  1  0  0  0  0
 73 79  2  0  0  0  0
 75 76  1  0  0  0  0
 75 77  2  0  0  0  0
 77 78  1  0  0  0  0
 77 79  1  0  0  0  0
 79 80  1  0  0  0  0
 81 82  1  0  0  0  0
 81 90  2  0  0  0  0
 82 83  1  0  0  0  0
 82 84  2  0  0  0  0
 84 85  1  0  0  0  0
 84 86  1  0  0  0  0
 86 87  1  0  0  0  0
 86 88  2  0  0  0  0
 88 89  1  0  0  0  0
 88 90  1  0  0  0  0
 90 91  1  0  0  0  0
M  END
> <ConfScore>
-0.712581 

> <SampleByParts>
10 7 6 92 4 1 14 17 20 23 25 26 27 29 30 33

$$$$
NPY1_MK299_12302016.pdb.B
  MOE2014           3D

 92 94  0  0  0  0  0  0  0  0999 V2000
  -54.7921  -16.6524   75.7740 C   0  0  0  1  0  0  0  0  0  0  0  0
  -54.9081  -17.5782   76.3447 H   0  0  0  1  0  0  0  0  0  0  0  0
  -53.9190  -16.1195   76.1650 H   0  0  0  1  0  0  0  0  0  0  0  0
  -55.9475  -15.7959   75.9922 N   0  0  0  1  0  0  0  0  0  0  0  0
  -56.4758  -15.5047   75.1782 H   0  0  0  1  0  0  0  0  0  0  0  0
  -56.4463  -15.3062   77.1688 C   0  0  0  1  0  0  0  0  0  0  0  0
  -57.7061  -14.4650   77.0960 C   0  0  0  1  0  0  0  0  0  0  0  0
  -58.5416  -15.0537   77.4898 H   0  0  0  1  0  0  0  0  0  0  0  0
  -57.9145  -14.2235   76.0489 H   0  0  0  1  0  0  0  0  0  0  0  0
  -57.5888  -13.1756   77.8889 C   0  0  0  1  0  0  0  0  0  0  0  0
  -58.5085  -12.5888   77.8032 H   0  0  0  1  0  0  0  0  0  0  0  0
  -56.7582  -12.5666   77.5208 H   0  0  0  1  0  0  0  0  0  0  0  0
  -57.4105  -13.3801   78.9496 H   0  0  0  1  0  0  0  0  0  0  0  0
  -54.6133  -16.9458   74.2898 C   0  0  0  1  0  0  0  0  0  0  0  0
  -55.5295  -17.4136   73.9136 H   0  0  0  1  0  0  0  0  0  0  0  0
  -54.5028  -16.0045   73.7364 H   0  0  0  1  0  0  0  0  0  0  0  0
  -53.4028  -17.8486   74.0118 C   0  0  0  1  0  0  0  0  0  0  0  0
  -52.4944  -17.3662   74.3727 H   0  0  0  1  0  0  0  0  0  0  0  0
  -53.5407  -18.7975   74.5301 H   0  0  0  1  0  0  0  0  0  0  0  0
  -53.2616  -18.1195   72.4851 C   0  0  0  1  0  0  0  0  0  0  0  0
  -53.1072  -17.1768   71.9601 H   0  0  0  1  0  0  0  0  0  0  0  0
  -54.1683  -18.5976   72.1142 H   0  0  0  1  0  0  0  0  0  0  0  0
  -52.1157  -19.0001   72.2574 N   0  0  0  1  0  0  0  0  0  0  0  0
  -51.5949  -19.2805   73.0760 H   0  0  0  1  0  0  0  0  0  0  0  0
  -51.6594  -19.4991   71.0244 C   0  0  0  1  0  0  0  0  0  0  0  0
  -52.2595  -19.2132   69.9748 O   0  0  0  1  0  0  0  0  0  0  0  0
  -50.4600  -20.2550   71.1740 N   0  0  0  1  0  0  0  0  0  0  0  0
  -50.1228  -20.3188   72.1239 H   0  0  0  1  0  0  0  0  0  0  0  0
  -49.6900  -20.9060   70.2590 C   0  0  0  1  0  0  0  0  0  0  0  0
  -50.2570  -20.8250   69.0000 N   0  0  0  1  0  0  0  0  0  0  0  0
  -49.8842  -21.3783   68.2417 H   0  0  0  1  0  0  0  0  0  0  0  0
  -51.0438  -20.2125   68.8389 H   0  0  0  1  0  0  0  0  0  0  0  0
  -48.6290  -21.7900   70.2920 N   0  0  0  1  0  0  0  0  0  0  0  0
  -47.7070  -22.1200   71.3230 C   0  0  0  1  0  0  0  0  0  0  0  0
  -48.1435  -21.9395   72.3054 H   0  0  0  1  0  0  0  0  0  0  0  0
  -47.3992  -23.1630   71.2482 H   0  0  0  1  0  0  0  0  0  0  0  0
  -46.5220  -21.1840   71.0740 C   0  0  0  1  0  0  0  0  0  0  0  0
  -46.9258  -20.2178   70.7716 H   0  0  0  1  0  0  0  0  0  0  0  0
  -45.9869  -21.0750   72.0173 H   0  0  0  1  0  0  0  0  0  0  0  0
  -45.4860  -21.6160   69.9960 C   0  0  0  1  0  0  0  0  0  0  0  0
  -45.9831  -21.6765   69.0278 H   0  0  0  1  0  0  0  0  0  0  0  0
  -45.0840  -22.5942   70.2597 H   0  0  0  1  0  0  0  0  0  0  0  0
  -44.2930  -20.5720   69.9030 C   0  0  0  1  0  0  0  0  0  0  0  0
  -43.4175  -20.9189   69.3542 H   0  0  0  1  0  0  0  0  0  0  0  0
  -43.9430  -20.2610   71.3950 C   0  0  0  1  0  0  0  0  0  0  0  0
  -43.2680  -21.2970   72.0370 N   0  0  0  1  0  0  0  0  0  0  0  0
  -42.9631  -22.0791   71.4753 H   0  0  0  1  0  0  0  0  0  0  0  0
  -42.9760  -21.3290   73.4430 C   0  0  0  1  0  0  0  0  0  0  0  0
  -42.1220  -21.9707   73.6596 H   0  0  0  1  0  0  0  0  0  0  0  0
  -42.7882  -20.3295   73.8353 H   0  0  0  1  0  0  0  0  0  0  0  0
  -44.2750  -21.9160   74.0000 C   0  0  0  1  0  0  0  0  0  0  0  0
  -44.6710  -23.2570   73.6750 C   0  0  0  1  0  0  0  0  0  0  0  0
  -44.0095  -23.8778   73.0890 H   0  0  0  1  0  0  0  0  0  0  0  0
  -45.9140  -23.7810   74.1090 C   0  0  0  1  0  0  0  0  0  0  0  0
  -46.2001  -24.7938   73.8667 H   0  0  0  1  0  0  0  0  0  0  0  0
  -46.7720  -22.9500   74.8660 C   0  0  0  1  0  0  0  0  0  0  0  0
  -48.0010  -23.3600   75.3380 O   0  0  0  1  0  0  0  0  0  0  0  0
  -48.4837  -22.6994   75.8401 H   0  0  0  1  0  0  0  0  0  0  0  0
  -46.3920  -21.6040   75.1900 C   0  0  0  1  0  0  0  0  0  0  0  0
  -47.0635  -20.9775   75.7583 H   0  0  0  1  0  0  0  0  0  0  0  0
  -45.1510  -21.0990   74.7710 C   0  0  0  1  0  0  0  0  0  0  0  0
  -44.8607  -20.0922   75.0329 H   0  0  0  1  0  0  0  0  0  0  0  0
  -44.2390  -19.1780   71.9410 O   0  0  0  1  0  0  0  0  0  0  0  0
  -44.8310  -19.3810   69.2410 N   0  0  0  1  0  0  0  0  0  0  0  0
  -45.3418  -18.7187   69.8071 H   0  0  0  1  0  0  0  0  0  0  0  0
  -44.6870  -19.1000   67.8890 C   0  0  0  1  0  0  0  0  0  0  0  0
  -44.0790  -19.8190   67.1090 O   0  0  0  1  0  0  0  0  0  0  0  0
  -45.4070  -17.8340   67.4640 C   0  0  0  1  0  0  0  0  0  0  0  0
  -45.5191  -17.1446   68.3008 H   0  0  0  1  0  0  0  0  0  0  0  0
  -46.7920  -18.2790   66.9880 C   0  0  0  1  0  0  0  0  0  0  0  0
  -47.9390  -17.9030   67.6910 C   0  0  0  1  0  0  0  0  0  0  0  0
  -47.8686  -17.2440   68.5437 H   0  0  0  1  0  0  0  0  0  0  0  0
  -49.1880  -18.3970   67.2700 C   0  0  0  1  0  0  0  0  0  0  0  0
  -50.0790  -18.1102   67.8088 H   0  0  0  1  0  0  0  0  0  0  0  0
  -46.9160  -19.1540   65.8530 C   0  0  0  1  0  0  0  0  0  0  0  0
  -46.0285  -19.4383   65.3071 H   0  0  0  1  0  0  0  0  0  0  0  0
  -48.1600  -19.6460   65.4390 C   0  0  0  1  0  0  0  0  0  0  0  0
  -48.2363  -20.3059   64.5875 H   0  0  0  1  0  0  0  0  0  0  0  0
  -49.3010  -19.2650   66.1510 C   0  0  0  1  0  0  0  0  0  0  0  0
  -50.2712  -19.6315   65.8496 H   0  0  0  1  0  0  0  0  0  0  0  0
  -44.6090  -16.9290   66.5050 C   0  0  0  1  0  0  0  0  0  0  0  0
  -43.2450  -16.6910   66.7460 C   0  0  0  1  0  0  0  0  0  0  0  0
  -42.7509  -17.1929   67.5647 H   0  0  0  1  0  0  0  0  0  0  0  0
  -42.5140  -15.8010   65.9270 C   0  0  0  1  0  0  0  0  0  0  0  0
  -41.4684  -15.6253   66.1325 H   0  0  0  1  0  0  0  0  0  0  0  0
  -43.1280  -15.1420   64.8500 C   0  0  0  1  0  0  0  0  0  0  0  0
  -42.5627  -14.4605   64.2316 H   0  0  0  1  0  0  0  0  0  0  0  0
  -44.4780  -15.3790   64.5890 C   0  0  0  1  0  0  0  0  0  0  0  0
  -44.9601  -14.8861   63.7577 H   0  0  0  1  0  0  0  0  0  0  0  0
  -45.2150  -16.2600   65.4070 C   0  0  0  1  0  0  0  0  0  0  0  0
  -46.2603  -16.4297   65.1951 H   0  0  0  1  0  0  0  0  0  0  0  0
  -55.8697  -15.5730   78.2223 O   0  0  0  1  0  0  0  0  0  0  0  0
  1  2  1  0  0  0  0
  1  3  1  0  0  0  0
  1  4  1  0  0  0  0
  1 14  1  0  0  0  0
  4  5  1  0  0  0  0
  4  6  1  0  0  0  0
  6  7  1  0  0  0  0
  6 92  2  0  0  0  0
  7  8  1  0  0  0  0
  7  9  1  0  0  0  0
  7 10  1  0  0  0  0
 10 11  1  0  0  0  0
 10 12  1  0  0  0  0
 10 13  1  0  0  0  0
 14 15  1  0  0  0  0
 14 16  1  0  0  0  0
 14 17  1  0  0  0  0
 17 18  1  0  0  0  0
 17 19  1  0  0  0  0
 17 20  1  0  0  0  0
 20 21  1  0  0  0  0
 20 22  1  0  0  0  0
 20 23  1  0  0  0  0
 23 24  1  0  0  0  0
 23 25  1  0  0  0  0
 25 26  2  0  0  0  0
 25 27  1  0  0  0  0
 27 28  1  0  0  0  0
 27 29  1  0  0  0  0
 29 30  1  0  0  0  0
 29 33  2  0  0  0  0
 30 31  1  0  0  0  0
 30 32  1  0  0  0  0
 33 34  1  0  0  0  0
 34 35  1  0  0  0  0
 34 36  1  0  0  0  0
 34 37  1  0  0  0  0
 37 38  1  0  0  0  0
 37 39  1  0  0  0  0
 37 40  1  0  0  0  0
 40 41  1  0  0  0  0
 40 42  1  0  0  0  0
 40 43  1  0  0  0  0
 43 44  1  0  0  0  0
 43 45  1  0  0  0  0
 43 64  1  0  0  0  0
 45 46  1  0  0  0  0
 45 63  2  0  0  0  0
 46 47  1  0  0  0  0
 46 48  1  0  0  0  0
 48 49  1  0  0  0  0
 48 50  1  0  0  0  0
 48 51  1  0  0  0  0
 51 52  1  0  0  0  0
 51 61  2  0  0  0  0
 52 53  1  0  0  0  0
 52 54  2  0  0  0  0
 54 55  1  0  0  0  0
 54 56  1  0  0  0  0
 56 57  1  0  0  0  0
 56 59  2  0  0  0  0
 57 58  1  0  0  0  0
 59 60  1  0  0  0  0
 59 61  1  0  0  0  0
 61 62  1  0  0  0  0
 64 65  1  0  0  0  0
 64 66  1  0  0  0  0
 66 67  2  0  0  0  0
 66 68  1  0  0  0  0
 68 69  1  0  0  0  0
 68 70  1  0  0  0  0
 68 81  1  0  0  0  0
 70 71  2  0  0  0  0
 70 75  1  0  0  0  0
 71 72  1  0  0  0  0
 71 73  1  0  0  0  0
 73 74  1  0  0  0  0
 73 79  2  0  0  0  0
 75 76  1  0  0  0  0
 75 77  2  0  0  0  0
 77 78  1  0  0  0  0
 77 79  1  0  0  0  0
 79 80  1  0  0  0  0
 81 82  1  0  0  0  0
 81 90  2  0  0  0  0
 82 83  1  0  0  0  0
 82 84  2  0  0  0  0
 84 85  1  0  0  0  0
 84 86  1  0  0  0  0
 86 87  1  0  0  0  0
 86 88  2  0  0  0  0
 88 89  1  0  0  0  0
 88 90  1  0  0  0  0
 90 91  1  0  0  0  0
M  END
> <ConfScore>
-0.712581 

> <SampleByParts>
10 7 6 92 4 1 14 17 20 23 25 26 27 29 30 33

$$$$
NPY1_MK299_12302016.pdb.B
  MOE2014           3D

 92 94  0  0  0  0  0  0  0  0999 V2000
  -54.7915  -16.6511   75.7737 C   0  0  0  1  0  0  0  0  0  0  0  0
  -54.8102  -17.5838   76.3446 H   0  0  0  1  0  0  0  0  0  0  0  0
  -53.9717  -16.0346   76.1569 H   0  0  0  1  0  0  0  0  0  0  0  0
  -56.0237  -15.9129   76.0033 N   0  0  0  1  0  0  0  0  0  0  0  0
  -56.4972  -15.5277   75.1947 H   0  0  0  1  0  0  0  0  0  0  0  0
  -56.6622  -15.6495   77.1849 C   0  0  0  1  0  0  0  0  0  0  0  0
  -57.9707  -14.8859   77.1156 C   0  0  0  1  0  0  0  0  0  0  0  0
  -58.7910  -15.5801   77.3279 H   0  0  0  1  0  0  0  0  0  0  0  0
  -58.1018  -14.4929   76.1025 H   0  0  0  1  0  0  0  0  0  0  0  0
  -58.0236  -13.7357   78.1051 C   0  0  0  1  0  0  0  0  0  0  0  0
  -58.9739  -13.1999   78.0183 H   0  0  0  1  0  0  0  0  0  0  0  0
  -57.2121  -13.0260   77.9207 H   0  0  0  1  0  0  0  0  0  0  0  0
  -57.9265  -14.0964   79.1342 H   0  0  0  1  0  0  0  0  0  0  0  0
  -54.5986  -16.9256   74.2875 C   0  0  0  1  0  0  0  0  0  0  0  0
  -55.5188  -17.3690   73.8922 H   0  0  0  1  0  0  0  0  0  0  0  0
  -54.4616  -15.9785   73.7503 H   0  0  0  1  0  0  0  0  0  0  0  0
  -53.4028  -17.8486   74.0118 C   0  0  0  1  0  0  0  0  0  0  0  0
  -52.4874  -17.3824   74.3762 H   0  0  0  1  0  0  0  0  0  0  0  0
  -53.5585  -18.7958   74.5281 H   0  0  0  1  0  0  0  0  0  0  0  0
  -53.2616  -18.1195   72.4851 C   0  0  0  1  0  0  0  0  0  0  0  0
  -53.1072  -17.1768   71.9601 H   0  0  0  1  0  0  0  0  0  0  0  0
  -54.1683  -18.5976   72.1142 H   0  0  0  1  0  0  0  0  0  0  0  0
  -52.1157  -19.0001   72.2574 N   0  0  0  1  0  0  0  0  0  0  0  0
  -51.5949  -19.2805   73.0760 H   0  0  0  1  0  0  0  0  0  0  0  0
  -51.6594  -19.4991   71.0244 C   0  0  0  1  0  0  0  0  0  0  0  0
  -52.2595  -19.2132   69.9748 O   0  0  0  1  0  0  0  0  0  0  0  0
  -50.4600  -20.2550   71.1740 N   0  0  0  1  0  0  0  0  0  0  0  0
  -50.1228  -20.3188   72.1239 H   0  0  0  1  0  0  0  0  0  0  0  0
  -49.6900  -20.9060   70.2590 C   0  0  0  1  0  0  0  0  0  0  0  0
  -50.2570  -20.8250   69.0000 N   0  0  0  1  0  0  0  0  0  0  0  0
  -49.8842  -21.3783   68.2417 H   0  0  0  1  0  0  0  0  0  0  0  0
  -51.0438  -20.2125   68.8389 H   0  0  0  1  0  0  0  0  0  0  0  0
  -48.6290  -21.7900   70.2920 N   0  0  0  1  0  0  0  0  0  0  0  0
  -47.7070  -22.1200   71.3230 C   0  0  0  1  0  0  0  0  0  0  0  0
  -48.1435  -21.9395   72.3054 H   0  0  0  1  0  0  0  0  0  0  0  0
  -47.3992  -23.1630   71.2482 H   0  0  0  1  0  0  0  0  0  0  0  0
  -46.5220  -21.1840   71.0740 C   0  0  0  1  0  0  0  0  0  0  0  0
  -46.9258  -20.2178   70.7716 H   0  0  0  1  0  0  0  0  0  0  0  0
  -45.9869  -21.0750   72.0173 H   0  0  0  1  0  0  0  0  0  0  0  0
  -45.4860  -21.6160   69.9960 C   0  0  0  1  0  0  0  0  0  0  0  0
  -45.9831  -21.6765   69.0278 H   0  0  0  1  0  0  0  0  0  0  0  0
  -45.0840  -22.5942   70.2597 H   0  0  0  1  0  0  0  0  0  0  0  0
  -44.2930  -20.5720   69.9030 C   0  0  0  1  0  0  0  0  0  0  0  0
  -43.4175  -20.9189   69.3542 H   0  0  0  1  0  0  0  0  0  0  0  0
  -43.9430  -20.2610   71.3950 C   0  0  0  1  0  0  0  0  0  0  0  0
  -43.2680  -21.2970   72.0370 N   0  0  0  1  0  0  0  0  0  0  0  0
  -42.9631  -22.0791   71.4753 H   0  0  0  1  0  0  0  0  0  0  0  0
  -42.9760  -21.3290   73.4430 C   0  0  0  1  0  0  0  0  0  0  0  0
  -42.1220  -21.9707   73.6596 H   0  0  0  1  0  0  0  0  0  0  0  0
  -42.7882  -20.3295   73.8353 H   0  0  0  1  0  0  0  0  0  0  0  0
  -44.2750  -21.9160   74.0000 C   0  0  0  1  0  0  0  0  0  0  0  0
  -44.6710  -23.2570   73.6750 C   0  0  0  1  0  0  0  0  0  0  0  0
  -44.0095  -23.8778   73.0890 H   0  0  0  1  0  0  0  0  0  0  0  0
  -45.9140  -23.7810   74.1090 C   0  0  0  1  0  0  0  0  0  0  0  0
  -46.2001  -24.7938   73.8667 H   0  0  0  1  0  0  0  0  0  0  0  0
  -46.7720  -22.9500   74.8660 C   0  0  0  1  0  0  0  0  0  0  0  0
  -48.0010  -23.3600   75.3380 O   0  0  0  1  0  0  0  0  0  0  0  0
  -48.4837  -22.6994   75.8401 H   0  0  0  1  0  0  0  0  0  0  0  0
  -46.3920  -21.6040   75.1900 C   0  0  0  1  0  0  0  0  0  0  0  0
  -47.0635  -20.9775   75.7583 H   0  0  0  1  0  0  0  0  0  0  0  0
  -45.1510  -21.0990   74.7710 C   0  0  0  1  0  0  0  0  0  0  0  0
  -44.8607  -20.0922   75.0329 H   0  0  0  1  0  0  0  0  0  0  0  0
  -44.2390  -19.1780   71.9410 O   0  0  0  1  0  0  0  0  0  0  0  0
  -44.8310  -19.3810   69.2410 N   0  0  0  1  0  0  0  0  0  0  0  0
  -45.3418  -18.7187   69.8071 H   0  0  0  1  0  0  0  0  0  0  0  0
  -44.6870  -19.1000   67.8890 C   0  0  0  1  0  0  0  0  0  0  0  0
  -44.0790  -19.8190   67.1090 O   0  0  0  1  0  0  0  0  0  0  0  0
  -45.4070  -17.8340   67.4640 C   0  0  0  1  0  0  0  0  0  0  0  0
  -45.5191  -17.1446   68.3008 H   0  0  0  1  0  0  0  0  0  0  0  0
  -46.7920  -18.2790   66.9880 C   0  0  0  1  0  0  0  0  0  0  0  0
  -47.9390  -17.9030   67.6910 C   0  0  0  1  0  0  0  0  0  0  0  0
  -47.8686  -17.2440   68.5437 H   0  0  0  1  0  0  0  0  0  0  0  0
  -49.1880  -18.3970   67.2700 C   0  0  0  1  0  0  0  0  0  0  0  0
  -50.0790  -18.1102   67.8088 H   0  0  0  1  0  0  0  0  0  0  0  0
  -46.9160  -19.1540   65.8530 C   0  0  0  1  0  0  0  0  0  0  0  0
  -46.0285  -19.4383   65.3071 H   0  0  0  1  0  0  0  0  0  0  0  0
  -48.1600  -19.6460   65.4390 C   0  0  0  1  0  0  0  0  0  0  0  0
  -48.2363  -20.3059   64.5875 H   0  0  0  1  0  0  0  0  0  0  0  0
  -49.3010  -19.2650   66.1510 C   0  0  0  1  0  0  0  0  0  0  0  0
  -50.2712  -19.6315   65.8496 H   0  0  0  1  0  0  0  0  0  0  0  0
  -44.6090  -16.9290   66.5050 C   0  0  0  1  0  0  0  0  0  0  0  0
  -43.2450  -16.6910   66.7460 C   0  0  0  1  0  0  0  0  0  0  0  0
  -42.7509  -17.1929   67.5647 H   0  0  0  1  0  0  0  0  0  0  0  0
  -42.5140  -15.8010   65.9270 C   0  0  0  1  0  0  0  0  0  0  0  0
  -41.4684  -15.6253   66.1325 H   0  0  0  1  0  0  0  0  0  0  0  0
  -43.1280  -15.1420   64.8500 C   0  0  0  1  0  0  0  0  0  0  0  0
  -42.5627  -14.4605   64.2316 H   0  0  0  1  0  0  0  0  0  0  0  0
  -44.4780  -15.3790   64.5890 C   0  0  0  1  0  0  0  0  0  0  0  0
  -44.9601  -14.8861   63.7577 H   0  0  0  1  0  0  0  0  0  0  0  0
  -45.2150  -16.2600   65.4070 C   0  0  0  1  0  0  0  0  0  0  0  0
  -46.2603  -16.4297   65.1951 H   0  0  0  1  0  0  0  0  0  0  0  0
  -56.1641  -16.0461   78.2375 O   0  0  0  1  0  0  0  0  0  0  0  0
  1  2  1  0  0  0  0
  1  3  1  0  0  0  0
  1  4  1  0  0  0  0
  1 14  1  0  0  0  0
  4  5  1  0  0  0  0
  4  6  1  0  0  0  0
  6  7  1  0  0  0  0
  6 92  2  0  0  0  0
  7  8  1  0  0  0  0
  7  9  1  0  0  0  0
  7 10  1  0  0  0  0
 10 11  1  0  0  0  0
 10 12  1  0  0  0  0
 10 13  1  0  0  0  0
 14 15  1  0  0  0  0
 14 16  1  0  0  0  0
 14 17  1  0  0  0  0
 17 18  1  0  0  0  0
 17 19  1  0  0  0  0
 17 20  1  0  0  0  0
 20 21  1  0  0  0  0
 20 22  1  0  0  0  0
 20 23  1  0  0  0  0
 23 24  1  0  0  0  0
 23 25  1  0  0  0  0
 25 26  2  0  0  0  0
 25 27  1  0  0  0  0
 27 28  1  0  0  0  0
 27 29  1  0  0  0  0
 29 30  1  0  0  0  0
 29 33  2  0  0  0  0
 30 31  1  0  0  0  0
 30 32  1  0  0  0  0
 33 34  1  0  0  0  0
 34 35  1  0  0  0  0
 34 36  1  0  0  0  0
 34 37  1  0  0  0  0
 37 38  1  0  0  0  0
 37 39  1  0  0  0  0
 37 40  1  0  0  0  0
 40 41  1  0  0  0  0
 40 42  1  0  0  0  0
 40 43  1  0  0  0  0
 43 44  1  0  0  0  0
 43 45  1  0  0  0  0
 43 64  1  0  0  0  0
 45 46  1  0  0  0  0
 45 63  2  0  0  0  0
 46 47  1  0  0  0  0
 46 48  1  0  0  0  0
 48 49  1  0  0  0  0
 48 50  1  0  0  0  0
 48 51  1  0  0  0  0
 51 52  1  0  0  0  0
 51 61  2  0  0  0  0
 52 53  1  0  0  0  0
 52 54  2  0  0  0  0
 54 55  1  0  0  0  0
 54 56  1  0  0  0  0
 56 57  1  0  0  0  0
 56 59  2  0  0  0  0
 57 58  1  0  0  0  0
 59 60  1  0  0  0  0
 59 61  1  0  0  0  0
 61 62  1  0  0  0  0
 64 65  1  0  0  0  0
 64 66  1  0  0  0  0
 66 67  2  0  0  0  0
 66 68  1  0  0  0  0
 68 69  1  0  0  0  0
 68 70  1  0  0  0  0
 68 81  1  0  0  0  0
 70 71  2  0  0  0  0
 70 75  1  0  0  0  0
 71 72  1  0  0  0  0
 71 73  1  0  0  0  0
 73 74  1  0  0  0  0
 73 79  2  0  0  0  0
 75 76  1  0  0  0  0
 75 77  2  0  0  0  0
 77 78  1  0  0  0  0
 77 79  1  0  0  0  0
 79 80  1  0  0  0  0
 81 82  1  0  0  0  0
 81 90  2  0  0  0  0
 82 83  1  0  0  0  0
 82 84  2  0  0  0  0
 84 85  1  0  0  0  0
 84 86  1  0  0  0  0
 86 87  1  0  0  0  0
 86 88  2  0  0  0  0
 88 89  1  0  0  0  0
 88 90  1  0  0  0  0
 90 91  1  0  0  0  0
M  END
> <ConfScore>
-0.712581 

> <SampleByParts>
10 7 6 92 4 1 14 17 20 23 25 26 27 29 30 33

$$$$
NPY1_MK299_12302016.pdb.B
  MOE2014           3D

 92 94  0  0  0  0  0  0  0  0999 V2000
  -54.8898  -16.8158   75.8022 C   0  0  0  1  0  0  0  0  0  0  0  0
  -53.9969  -16.3642   76.2441 H   0  0  0  1  0  0  0  0  0  0  0  0
  -55.7307  -16.1330   75.9629 H   0  0  0  1  0  0  0  0  0  0  0  0
  -55.2065  -18.0536   76.4975 N   0  0  0  1  0  0  0  0  0  0  0  0
  -55.6886  -18.7751   75.9746 H   0  0  0  1  0  0  0  0  0  0  0  0
  -54.9446  -18.4040   77.7943 C   0  0  0  1  0  0  0  0  0  0  0  0
  -55.4174  -19.7686   78.2573 C   0  0  0  1  0  0  0  0  0  0  0  0
  -54.6328  -20.2182   78.8754 H   0  0  0  1  0  0  0  0  0  0  0  0
  -55.5787  -20.4065   77.3826 H   0  0  0  1  0  0  0  0  0  0  0  0
  -56.7029  -19.6945   79.0616 C   0  0  0  1  0  0  0  0  0  0  0  0
  -57.0213  -20.6959   79.3670 H   0  0  0  1  0  0  0  0  0  0  0  0
  -57.5062  -19.2448   78.4710 H   0  0  0  1  0  0  0  0  0  0  0  0
  -56.5693  -19.0877   79.9630 H   0  0  0  1  0  0  0  0  0  0  0  0
  -54.6913  -17.0713   74.3135 C   0  0  0  1  0  0  0  0  0  0  0  0
  -55.6129  -17.5020   73.9074 H   0  0  0  1  0  0  0  0  0  0  0  0
  -54.5443  -16.1180   73.7900 H   0  0  0  1  0  0  0  0  0  0  0  0
  -53.5013  -17.9996   74.0310 C   0  0  0  1  0  0  0  0  0  0  0  0
  -52.5896  -17.5621   74.4377 H   0  0  0  1  0  0  0  0  0  0  0  0
  -53.6834  -18.9647   74.5038 H   0  0  0  1  0  0  0  0  0  0  0  0
  -53.3236  -18.2103   72.4986 C   0  0  0  1  0  0  0  0  0  0  0  0
  -53.2135  -17.2432   72.0078 H   0  0  0  1  0  0  0  0  0  0  0  0
  -54.1973  -18.7238   72.0973 H   0  0  0  1  0  0  0  0  0  0  0  0
  -52.1280  -19.0191   72.2603 N   0  0  0  1  0  0  0  0  0  0  0  0
  -51.5786  -19.2591   73.0731 H   0  0  0  1  0  0  0  0  0  0  0  0
  -51.6594  -19.4991   71.0244 C   0  0  0  1  0  0  0  0  0  0  0  0
  -52.2504  -19.1989   69.9736 O   0  0  0  1  0  0  0  0  0  0  0  0
  -50.4600  -20.2550   71.1740 N   0  0  0  1  0  0  0  0  0  0  0  0
  -50.1228  -20.3188   72.1239 H   0  0  0  1  0  0  0  0  0  0  0  0
  -49.6900  -20.9060   70.2590 C   0  0  0  1  0  0  0  0  0  0  0  0
  -50.2570  -20.8250   69.0000 N   0  0  0  1  0  0  0  0  0  0  0  0
  -49.8842  -21.3783   68.2417 H   0  0  0  1  0  0  0  0  0  0  0  0
  -51.0438  -20.2125   68.8389 H   0  0  0  1  0  0  0  0  0  0  0  0
  -48.6290  -21.7900   70.2920 N   0  0  0  1  0  0  0  0  0  0  0  0
  -47.7070  -22.1200   71.3230 C   0  0  0  1  0  0  0  0  0  0  0  0
  -48.1435  -21.9395   72.3054 H   0  0  0  1  0  0  0  0  0  0  0  0
  -47.3992  -23.1630   71.2482 H   0  0  0  1  0  0  0  0  0  0  0  0
  -46.5220  -21.1840   71.0740 C   0  0  0  1  0  0  0  0  0  0  0  0
  -46.9258  -20.2178   70.7716 H   0  0  0  1  0  0  0  0  0  0  0  0
  -45.9869  -21.0750   72.0173 H   0  0  0  1  0  0  0  0  0  0  0  0
  -45.4860  -21.6160   69.9960 C   0  0  0  1  0  0  0  0  0  0  0  0
  -45.9831  -21.6765   69.0278 H   0  0  0  1  0  0  0  0  0  0  0  0
  -45.0840  -22.5942   70.2597 H   0  0  0  1  0  0  0  0  0  0  0  0
  -44.2930  -20.5720   69.9030 C   0  0  0  1  0  0  0  0  0  0  0  0
  -43.4175  -20.9189   69.3542 H   0  0  0  1  0  0  0  0  0  0  0  0
  -43.9430  -20.2610   71.3950 C   0  0  0  1  0  0  0  0  0  0  0  0
  -43.2680  -21.2970   72.0370 N   0  0  0  1  0  0  0  0  0  0  0  0
  -42.9631  -22.0791   71.4753 H   0  0  0  1  0  0  0  0  0  0  0  0
  -42.9760  -21.3290   73.4430 C   0  0  0  1  0  0  0  0  0  0  0  0
  -42.1220  -21.9707   73.6596 H   0  0  0  1  0  0  0  0  0  0  0  0
  -42.7882  -20.3295   73.8353 H   0  0  0  1  0  0  0  0  0  0  0  0
  -44.2750  -21.9160   74.0000 C   0  0  0  1  0  0  0  0  0  0  0  0
  -44.6710  -23.2570   73.6750 C   0  0  0  1  0  0  0  0  0  0  0  0
  -44.0095  -23.8778   73.0890 H   0  0  0  1  0  0  0  0  0  0  0  0
  -45.9140  -23.7810   74.1090 C   0  0  0  1  0  0  0  0  0  0  0  0
  -46.2001  -24.7938   73.8667 H   0  0  0  1  0  0  0  0  0  0  0  0
  -46.7720  -22.9500   74.8660 C   0  0  0  1  0  0  0  0  0  0  0  0
  -48.0010  -23.3600   75.3380 O   0  0  0  1  0  0  0  0  0  0  0  0
  -48.4837  -22.6994   75.8401 H   0  0  0  1  0  0  0  0  0  0  0  0
  -46.3920  -21.6040   75.1900 C   0  0  0  1  0  0  0  0  0  0  0  0
  -47.0635  -20.9775   75.7583 H   0  0  0  1  0  0  0  0  0  0  0  0
  -45.1510  -21.0990   74.7710 C   0  0  0  1  0  0  0  0  0  0  0  0
  -44.8607  -20.0922   75.0329 H   0  0  0  1  0  0  0  0  0  0  0  0
  -44.2390  -19.1780   71.9410 O   0  0  0  1  0  0  0  0  0  0  0  0
  -44.8310  -19.3810   69.2410 N   0  0  0  1  0  0  0  0  0  0  0  0
  -45.3418  -18.7187   69.8071 H   0  0  0  1  0  0  0  0  0  0  0  0
  -44.6870  -19.1000   67.8890 C   0  0  0  1  0  0  0  0  0  0  0  0
  -44.0790  -19.8190   67.1090 O   0  0  0  1  0  0  0  0  0  0  0  0
  -45.4070  -17.8340   67.4640 C   0  0  0  1  0  0  0  0  0  0  0  0
  -45.5191  -17.1446   68.3008 H   0  0  0  1  0  0  0  0  0  0  0  0
  -46.7920  -18.2790   66.9880 C   0  0  0  1  0  0  0  0  0  0  0  0
  -47.9390  -17.9030   67.6910 C   0  0  0  1  0  0  0  0  0  0  0  0
  -47.8686  -17.2440   68.5437 H   0  0  0  1  0  0  0  0  0  0  0  0
  -49.1880  -18.3970   67.2700 C   0  0  0  1  0  0  0  0  0  0  0  0
  -50.0790  -18.1102   67.8088 H   0  0  0  1  0  0  0  0  0  0  0  0
  -46.9160  -19.1540   65.8530 C   0  0  0  1  0  0  0  0  0  0  0  0
  -46.0285  -19.4383   65.3071 H   0  0  0  1  0  0  0  0  0  0  0  0
  -48.1600  -19.6460   65.4390 C   0  0  0  1  0  0  0  0  0  0  0  0
  -48.2363  -20.3059   64.5875 H   0  0  0  1  0  0  0  0  0  0  0  0
  -49.3010  -19.2650   66.1510 C   0  0  0  1  0  0  0  0  0  0  0  0
  -50.2712  -19.6315   65.8496 H   0  0  0  1  0  0  0  0  0  0  0  0
  -44.6090  -16.9290   66.5050 C   0  0  0  1  0  0  0  0  0  0  0  0
  -43.2450  -16.6910   66.7460 C   0  0  0  1  0  0  0  0  0  0  0  0
  -42.7509  -17.1929   67.5647 H   0  0  0  1  0  0  0  0  0  0  0  0
  -42.5140  -15.8010   65.9270 C   0  0  0  1  0  0  0  0  0  0  0  0
  -41.4684  -15.6253   66.1325 H   0  0  0  1  0  0  0  0  0  0  0  0
  -43.1280  -15.1420   64.8500 C   0  0  0  1  0  0  0  0  0  0  0  0
  -42.5627  -14.4605   64.2316 H   0  0  0  1  0  0  0  0  0  0  0  0
  -44.4780  -15.3790   64.5890 C   0  0  0  1  0  0  0  0  0  0  0  0
  -44.9601  -14.8861   63.7577 H   0  0  0  1  0  0  0  0  0  0  0  0
  -45.2150  -16.2600   65.4070 C   0  0  0  1  0  0  0  0  0  0  0  0
  -46.2603  -16.4297   65.1951 H   0  0  0  1  0  0  0  0  0  0  0  0
  -54.3358  -17.6166   78.5175 O   0  0  0  1  0  0  0  0  0  0  0  0
  1  2  1  0  0  0  0
  1  3  1  0  0  0  0
  1  4  1  0  0  0  0
  1 14  1  0  0  0  0
  4  5  1  0  0  0  0
  4  6  1  0  0  0  0
  6  7  1  0  0  0  0
  6 92  2  0  0  0  0
  7  8  1  0  0  0  0
  7  9  1  0  0  0  0
  7 10  1  0  0  0  0
 10 11  1  0  0  0  0
 10 12  1  0  0  0  0
 10 13  1  0  0  0  0
 14 15  1  0  0  0  0
 14 16  1  0  0  0  0
 14 17  1  0  0  0  0
 17 18  1  0  0  0  0
 17 19  1  0  0  0  0
 17 20  1  0  0  0  0
 20 21  1  0  0  0  0
 20 22  1  0  0  0  0
 20 23  1  0  0  0  0
 23 24  1  0  0  0  0
 23 25  1  0  0  0  0
 25 26  2  0  0  0  0
 25 27  1  0  0  0  0
 27 28  1  0  0  0  0
 27 29  1  0  0  0  0
 29 30  1  0  0  0  0
 29 33  2  0  0  0  0
 30 31  1  0  0  0  0
 30 32  1  0  0  0  0
 33 34  1  0  0  0  0
 34 35  1  0  0  0  0
 34 36  1  0  0  0  0
 34 37  1  0  0  0  0
 37 38  1  0  0  0  0
 37 39  1  0  0  0  0
 37 40  1  0  0  0  0
 40 41  1  0  0  0  0
 40 42  1  0  0  0  0
 40 43  1  0  0  0  0
 43 44  1  0  0  0  0
 43 45  1  0  0  0  0
 43 64  1  0  0  0  0
 45 46  1  0  0  0  0
 45 63  2  0  0  0  0
 46 47  1  0  0  0  0
 46 48  1  0  0  0  0
 48 49  1  0  0  0  0
 48 50  1  0  0  0  0
 48 51  1  0  0  0  0
 51 52  1  0  0  0  0
 51 61  2  0  0  0  0
 52 53  1  0  0  0  0
 52 54  2  0  0  0  0
 54 55  1  0  0  0  0
 54 56  1  0  0  0  0
 56 57  1  0  0  0  0
 56 59  2  0  0  0  0
 57 58  1  0  0  0  0
 59 60  1  0  0  0  0
 59 61  1  0  0  0  0
 61 62  1  0  0  0  0
 64 65  1  0  0  0  0
 64 66  1  0  0  0  0
 66 67  2  0  0  0  0
 66 68  1  0  0  0  0
 68 69  1  0  0  0  0
 68 70  1  0  0  0  0
 68 81  1  0  0  0  0
 70 71  2  0  0  0  0
 70 75  1  0  0  0  0
 71 72  1  0  0  0  0
 71 73  1  0  0  0  0
 73 74  1  0  0  0  0
 73 79  2  0  0  0  0
 75 76  1  0  0  0  0
 75 77  2  0  0  0  0
 77 78  1  0  0  0  0
 77 79  1  0  0  0  0
 79 80  1  0  0  0  0
 81 82  1  0  0  0  0
 81 90  2  0  0  0  0
 82 83  1  0  0  0  0
 82 84  2  0  0  0  0
 84 85  1  0  0  0  0
 84 86  1  0  0  0  0
 86 87  1  0  0  0  0
 86 88  2  0  0  0  0
 88 89  1  0  0  0  0
 88 90  1  0  0  0  0
 90 91  1  0  0  0  0
M  END
> <ConfScore>
-0.707785 

> <SampleByParts>
10 7 6 92 4 1 14 17 20 23 25 26 27 29 30 33

$$$$
NPY1_MK299_12302016.pdb.B
  MOE2014           3D

 92 94  0  0  0  0  0  0  0  0999 V2000
  -54.5198  -16.2239   75.6607 C   0  0  0  1  0  0  0  0  0  0  0  0
  -53.6710  -15.5552   75.8300 H   0  0  0  1  0  0  0  0  0  0  0  0
  -55.4396  -15.6576   75.8407 H   0  0  0  1  0  0  0  0  0  0  0  0
  -54.4894  -17.3074   76.6308 N   0  0  0  1  0  0  0  0  0  0  0  0
  -54.9013  -18.1921   76.3588 H   0  0  0  1  0  0  0  0  0  0  0  0
  -53.9725  -17.3142   77.8981 C   0  0  0  1  0  0  0  0  0  0  0  0
  -54.1127  -18.5926   78.7018 C   0  0  0  1  0  0  0  0  0  0  0  0
  -53.2599  -18.6703   79.3847 H   0  0  0  1  0  0  0  0  0  0  0  0
  -54.0901  -19.4480   78.0193 H   0  0  0  1  0  0  0  0  0  0  0  0
  -55.3996  -18.6334   79.5063 C   0  0  0  1  0  0  0  0  0  0  0  0
  -55.4737  -19.5733   80.0619 H   0  0  0  1  0  0  0  0  0  0  0  0
  -56.2712  -18.5533   78.8506 H   0  0  0  1  0  0  0  0  0  0  0  0
  -55.4422  -17.8073   80.2235 H   0  0  0  1  0  0  0  0  0  0  0  0
  -54.5053  -16.7741   74.2401 C   0  0  0  1  0  0  0  0  0  0  0  0
  -55.3900  -17.4047   74.1010 H   0  0  0  1  0  0  0  0  0  0  0  0
  -54.6030  -15.9497   73.5222 H   0  0  0  1  0  0  0  0  0  0  0  0
  -53.2300  -17.5723   73.9330 C   0  0  0  1  0  0  0  0  0  0  0  0
  -52.3560  -16.9362   74.0731 H   0  0  0  1  0  0  0  0  0  0  0  0
  -53.1720  -18.4240   74.6107 H   0  0  0  1  0  0  0  0  0  0  0  0
  -53.2500  -18.0916   72.4653 C   0  0  0  1  0  0  0  0  0  0  0  0
  -53.2201  -17.2455   71.7786 H   0  0  0  1  0  0  0  0  0  0  0  0
  -54.1601  -18.6664   72.2941 H   0  0  0  1  0  0  0  0  0  0  0  0
  -52.0827  -18.9449   72.2418 N   0  0  0  1  0  0  0  0  0  0  0  0
  -51.4952  -19.1217   73.0440 H   0  0  0  1  0  0  0  0  0  0  0  0
  -51.6888  -19.5461   71.0331 C   0  0  0  1  0  0  0  0  0  0  0  0
  -52.3613  -19.3749   70.0026 O   0  0  0  1  0  0  0  0  0  0  0  0
  -50.4600  -20.2550   71.1740 N   0  0  0  1  0  0  0  0  0  0  0  0
  -50.0976  -20.2784   72.1165 H   0  0  0  1  0  0  0  0  0  0  0  0
  -49.6900  -20.9060   70.2590 C   0  0  0  1  0  0  0  0  0  0  0  0
  -50.2570  -20.8250   69.0000 N   0  0  0  1  0  0  0  0  0  0  0  0
  -49.8842  -21.3783   68.2417 H   0  0  0  1  0  0  0  0  0  0  0  0
  -51.0438  -20.2125   68.8389 H   0  0  0  1  0  0  0  0  0  0  0  0
  -48.6290  -21.7900   70.2920 N   0  0  0  1  0  0  0  0  0  0  0  0
  -47.7070  -22.1200   71.3230 C   0  0  0  1  0  0  0  0  0  0  0  0
  -48.1435  -21.9395   72.3054 H   0  0  0  1  0  0  0  0  0  0  0  0
  -47.3992  -23.1630   71.2482 H   0  0  0  1  0  0  0  0  0  0  0  0
  -46.5220  -21.1840   71.0740 C   0  0  0  1  0  0  0  0  0  0  0  0
  -46.9258  -20.2178   70.7716 H   0  0  0  1  0  0  0  0  0  0  0  0
  -45.9869  -21.0750   72.0173 H   0  0  0  1  0  0  0  0  0  0  0  0
  -45.4860  -21.6160   69.9960 C   0  0  0  1  0  0  0  0  0  0  0  0
  -45.9831  -21.6765   69.0278 H   0  0  0  1  0  0  0  0  0  0  0  0
  -45.0840  -22.5942   70.2597 H   0  0  0  1  0  0  0  0  0  0  0  0
  -44.2930  -20.5720   69.9030 C   0  0  0  1  0  0  0  0  0  0  0  0
  -43.4175  -20.9189   69.3542 H   0  0  0  1  0  0  0  0  0  0  0  0
  -43.9430  -20.2610   71.3950 C   0  0  0  1  0  0  0  0  0  0  0  0
  -43.2680  -21.2970   72.0370 N   0  0  0  1  0  0  0  0  0  0  0  0
  -42.9631  -22.0791   71.4753 H   0  0  0  1  0  0  0  0  0  0  0  0
  -42.9760  -21.3290   73.4430 C   0  0  0  1  0  0  0  0  0  0  0  0
  -42.1220  -21.9707   73.6596 H   0  0  0  1  0  0  0  0  0  0  0  0
  -42.7882  -20.3295   73.8353 H   0  0  0  1  0  0  0  0  0  0  0  0
  -44.2750  -21.9160   74.0000 C   0  0  0  1  0  0  0  0  0  0  0  0
  -44.6710  -23.2570   73.6750 C   0  0  0  1  0  0  0  0  0  0  0  0
  -44.0095  -23.8778   73.0890 H   0  0  0  1  0  0  0  0  0  0  0  0
  -45.9140  -23.7810   74.1090 C   0  0  0  1  0  0  0  0  0  0  0  0
  -46.2001  -24.7938   73.8667 H   0  0  0  1  0  0  0  0  0  0  0  0
  -46.7720  -22.9500   74.8660 C   0  0  0  1  0  0  0  0  0  0  0  0
  -48.0010  -23.3600   75.3380 O   0  0  0  1  0  0  0  0  0  0  0  0
  -48.4837  -22.6994   75.8401 H   0  0  0  1  0  0  0  0  0  0  0  0
  -46.3920  -21.6040   75.1900 C   0  0  0  1  0  0  0  0  0  0  0  0
  -47.0635  -20.9775   75.7583 H   0  0  0  1  0  0  0  0  0  0  0  0
  -45.1510  -21.0990   74.7710 C   0  0  0  1  0  0  0  0  0  0  0  0
  -44.8607  -20.0922   75.0329 H   0  0  0  1  0  0  0  0  0  0  0  0
  -44.2390  -19.1780   71.9410 O   0  0  0  1  0  0  0  0  0  0  0  0
  -44.8310  -19.3810   69.2410 N   0  0  0  1  0  0  0  0  0  0  0  0
  -45.3418  -18.7187   69.8071 H   0  0  0  1  0  0  0  0  0  0  0  0
  -44.6870  -19.1000   67.8890 C   0  0  0  1  0  0  0  0  0  0  0  0
  -44.0790  -19.8190   67.1090 O   0  0  0  1  0  0  0  0  0  0  0  0
  -45.4070  -17.8340   67.4640 C   0  0  0  1  0  0  0  0  0  0  0  0
  -45.5191  -17.1446   68.3008 H   0  0  0  1  0  0  0  0  0  0  0  0
  -46.7920  -18.2790   66.9880 C   0  0  0  1  0  0  0  0  0  0  0  0
  -47.9390  -17.9030   67.6910 C   0  0  0  1  0  0  0  0  0  0  0  0
  -47.8686  -17.2440   68.5437 H   0  0  0  1  0  0  0  0  0  0  0  0
  -49.1880  -18.3970   67.2700 C   0  0  0  1  0  0  0  0  0  0  0  0
  -50.0790  -18.1102   67.8088 H   0  0  0  1  0  0  0  0  0  0  0  0
  -46.9160  -19.1540   65.8530 C   0  0  0  1  0  0  0  0  0  0  0  0
  -46.0285  -19.4383   65.3071 H   0  0  0  1  0  0  0  0  0  0  0  0
  -48.1600  -19.6460   65.4390 C   0  0  0  1  0  0  0  0  0  0  0  0
  -48.2363  -20.3059   64.5875 H   0  0  0  1  0  0  0  0  0  0  0  0
  -49.3010  -19.2650   66.1510 C   0  0  0  1  0  0  0  0  0  0  0  0
  -50.2712  -19.6315   65.8496 H   0  0  0  1  0  0  0  0  0  0  0  0
  -44.6090  -16.9290   66.5050 C   0  0  0  1  0  0  0  0  0  0  0  0
  -43.2450  -16.6910   66.7460 C   0  0  0  1  0  0  0  0  0  0  0  0
  -42.7509  -17.1929   67.5647 H   0  0  0  1  0  0  0  0  0  0  0  0
  -42.5140  -15.8010   65.9270 C   0  0  0  1  0  0  0  0  0  0  0  0
  -41.4684  -15.6253   66.1325 H   0  0  0  1  0  0  0  0  0  0  0  0
  -43.1280  -15.1420   64.8500 C   0  0  0  1  0  0  0  0  0  0  0  0
  -42.5627  -14.4605   64.2316 H   0  0  0  1  0  0  0  0  0  0  0  0
  -44.4780  -15.3790   64.5890 C   0  0  0  1  0  0  0  0  0  0  0  0
  -44.9601  -14.8861   63.7577 H   0  0  0  1  0  0  0  0  0  0  0  0
  -45.2150  -16.2600   65.4070 C   0  0  0  1  0  0  0  0  0  0  0  0
  -46.2603  -16.4297   65.1951 H   0  0  0  1  0  0  0  0  0  0  0  0
  -53.4138  -16.3042   78.3237 O   0  0  0  1  0  0  0  0  0  0  0  0
  1  2  1  0  0  0  0
  1  3  1  0  0  0  0
  1  4  1  0  0  0  0
  1 14  1  0  0  0  0
  4  5  1  0  0  0  0
  4  6  1  0  0  0  0
  6  7  1  0  0  0  0
  6 92  2  0  0  0  0
  7  8  1  0  0  0  0
  7  9  1  0  0  0  0
  7 10  1  0  0  0  0
 10 11  1  0  0  0  0
 10 12  1  0  0  0  0
 10 13  1  0  0  0  0
 14 15  1  0  0  0  0
 14 16  1  0  0  0  0
 14 17  1  0  0  0  0
 17 18  1  0  0  0  0
 17 19  1  0  0  0  0
 17 20  1  0  0  0  0
 20 21  1  0  0  0  0
 20 22  1  0  0  0  0
 20 23  1  0  0  0  0
 23 24  1  0  0  0  0
 23 25  1  0  0  0  0
 25 26  2  0  0  0  0
 25 27  1  0  0  0  0
 27 28  1  0  0  0  0
 27 29  1  0  0  0  0
 29 30  1  0  0  0  0
 29 33  2  0  0  0  0
 30 31  1  0  0  0  0
 30 32  1  0  0  0  0
 33 34  1  0  0  0  0
 34 35  1  0  0  0  0
 34 36  1  0  0  0  0
 34 37  1  0  0  0  0
 37 38  1  0  0  0  0
 37 39  1  0  0  0  0
 37 40  1  0  0  0  0
 40 41  1  0  0  0  0
 40 42  1  0  0  0  0
 40 43  1  0  0  0  0
 43 44  1  0  0  0  0
 43 45  1  0  0  0  0
 43 64  1  0  0  0  0
 45 46  1  0  0  0  0
 45 63  2  0  0  0  0
 46 47  1  0  0  0  0
 46 48  1  0  0  0  0
 48 49  1  0  0  0  0
 48 50  1  0  0  0  0
 48 51  1  0  0  0  0
 51 52  1  0  0  0  0
 51 61  2  0  0  0  0
 52 53  1  0  0  0  0
 52 54  2  0  0  0  0
 54 55  1  0  0  0  0
 54 56  1  0  0  0  0
 56 57  1  0  0  0  0
 56 59  2  0  0  0  0
 57 58  1  0  0  0  0
 59 60  1  0  0  0  0
 59 61  1  0  0  0  0
 61 62  1  0  0  0  0
 64 65  1  0  0  0  0
 64 66  1  0  0  0  0
 66 67  2  0  0  0  0
 66 68  1  0  0  0  0
 68 69  1  0  0  0  0
 68 70  1  0  0  0  0
 68 81  1  0  0  0  0
 70 71  2  0  0  0  0
 70 75  1  0  0  0  0
 71 72  1  0  0  0  0
 71 73  1  0  0  0  0
 73 74  1  0  0  0  0
 73 79  2  0  0  0  0
 75 76  1  0  0  0  0
 75 77  2  0  0  0  0
 77 78  1  0  0  0  0
 77 79  1  0  0  0  0
 79 80  1  0  0  0  0
 81 82  1  0  0  0  0
 81 90  2  0  0  0  0
 82 83  1  0  0  0  0
 82 84  2  0  0  0  0
 84 85  1  0  0  0  0
 84 86  1  0  0  0  0
 86 87  1  0  0  0  0
 86 88  2  0  0  0  0
 88 89  1  0  0  0  0
 88 90  1  0  0  0  0
 90 91  1  0  0  0  0
M  END
> <ConfScore>
-0.707785 

> <SampleByParts>
10 7 6 92 4 1 14 17 20 23 25 26 27 29 30 33

$$$$
NPY1_MK299_12302016.pdb.B
  MOE2014           3D

 92 94  0  0  0  0  0  0  0  0999 V2000
  -54.7443  -16.6065   75.7762 C   0  0  0  1  0  0  0  0  0  0  0  0
  -53.8098  -16.2699   76.2342 H   0  0  0  1  0  0  0  0  0  0  0  0
  -55.4967  -15.8252   75.9260 H   0  0  0  1  0  0  0  0  0  0  0  0
  -55.2232  -17.7969   76.4615 N   0  0  0  1  0  0  0  0  0  0  0  0
  -55.8457  -18.4128   75.9520 H   0  0  0  1  0  0  0  0  0  0  0  0
  -54.9530  -18.2260   77.7327 C   0  0  0  1  0  0  0  0  0  0  0  0
  -55.6793  -19.4649   78.2199 C   0  0  0  1  0  0  0  0  0  0  0  0
  -55.0323  -19.9919   78.9295 H   0  0  0  1  0  0  0  0  0  0  0  0
  -55.8708  -20.1251   77.3681 H   0  0  0  1  0  0  0  0  0  0  0  0
  -56.9969  -19.1352   78.8984 C   0  0  0  1  0  0  0  0  0  0  0  0
  -57.4990  -20.0512   79.2245 H   0  0  0  1  0  0  0  0  0  0  0  0
  -57.6644  -18.6033   78.2145 H   0  0  0  1  0  0  0  0  0  0  0  0
  -56.8400  -18.4996   79.7759 H   0  0  0  1  0  0  0  0  0  0  0  0
  -54.5545  -16.8819   74.2899 C   0  0  0  1  0  0  0  0  0  0  0  0
  -55.5022  -17.2459   73.8786 H   0  0  0  1  0  0  0  0  0  0  0  0
  -54.3346  -15.9440   73.7641 H   0  0  0  1  0  0  0  0  0  0  0  0
  -53.4335  -17.8957   74.0194 C   0  0  0  1  0  0  0  0  0  0  0  0
  -52.4916  -17.5162   74.4156 H   0  0  0  1  0  0  0  0  0  0  0  0
  -53.6804  -18.8377   74.5092 H   0  0  0  1  0  0  0  0  0  0  0  0
  -53.2777  -18.1440   72.4902 C   0  0  0  1  0  0  0  0  0  0  0  0
  -53.1202  -17.1934   71.9806 H   0  0  0  1  0  0  0  0  0  0  0  0
  -54.1800  -18.6181   72.1040 H   0  0  0  1  0  0  0  0  0  0  0  0
  -52.1280  -19.0191   72.2603 N   0  0  0  1  0  0  0  0  0  0  0  0
  -51.6143  -19.3106   73.0795 H   0  0  0  1  0  0  0  0  0  0  0  0
  -51.6594  -19.4991   71.0244 C   0  0  0  1  0  0  0  0  0  0  0  0
  -52.2504  -19.1989   69.9736 O   0  0  0  1  0  0  0  0  0  0  0  0
  -50.4600  -20.2550   71.1740 N   0  0  0  1  0  0  0  0  0  0  0  0
  -50.1228  -20.3188   72.1239 H   0  0  0  1  0  0  0  0  0  0  0  0
  -49.6900  -20.9060   70.2590 C   0  0  0  1  0  0  0  0  0  0  0  0
  -50.2570  -20.8250   69.0000 N   0  0  0  1  0  0  0  0  0  0  0  0
  -49.8842  -21.3783   68.2417 H   0  0  0  1  0  0  0  0  0  0  0  0
  -51.0438  -20.2125   68.8389 H   0  0  0  1  0  0  0  0  0  0  0  0
  -48.6290  -21.7900   70.2920 N   0  0  0  1  0  0  0  0  0  0  0  0
  -47.7070  -22.1200   71.3230 C   0  0  0  1  0  0  0  0  0  0  0  0
  -48.1435  -21.9395   72.3054 H   0  0  0  1  0  0  0  0  0  0  0  0
  -47.3992  -23.1630   71.2482 H   0  0  0  1  0  0  0  0  0  0  0  0
  -46.5220  -21.1840   71.0740 C   0  0  0  1  0  0  0  0  0  0  0  0
  -46.9258  -20.2178   70.7716 H   0  0  0  1  0  0  0  0  0  0  0  0
  -45.9869  -21.0750   72.0173 H   0  0  0  1  0  0  0  0  0  0  0  0
  -45.4860  -21.6160   69.9960 C   0  0  0  1  0  0  0  0  0  0  0  0
  -45.9831  -21.6765   69.0278 H   0  0  0  1  0  0  0  0  0  0  0  0
  -45.0840  -22.5942   70.2597 H   0  0  0  1  0  0  0  0  0  0  0  0
  -44.2930  -20.5720   69.9030 C   0  0  0  1  0  0  0  0  0  0  0  0
  -43.4175  -20.9189   69.3542 H   0  0  0  1  0  0  0  0  0  0  0  0
  -43.9430  -20.2610   71.3950 C   0  0  0  1  0  0  0  0  0  0  0  0
  -43.2680  -21.2970   72.0370 N   0  0  0  1  0  0  0  0  0  0  0  0
  -42.9631  -22.0791   71.4753 H   0  0  0  1  0  0  0  0  0  0  0  0
  -42.9760  -21.3290   73.4430 C   0  0  0  1  0  0  0  0  0  0  0  0
  -42.1220  -21.9707   73.6596 H   0  0  0  1  0  0  0  0  0  0  0  0
  -42.7882  -20.3295   73.8353 H   0  0  0  1  0  0  0  0  0  0  0  0
  -44.2750  -21.9160   74.0000 C   0  0  0  1  0  0  0  0  0  0  0  0
  -44.6710  -23.2570   73.6750 C   0  0  0  1  0  0  0  0  0  0  0  0
  -44.0095  -23.8778   73.0890 H   0  0  0  1  0  0  0  0  0  0  0  0
  -45.9140  -23.7810   74.1090 C   0  0  0  1  0  0  0  0  0  0  0  0
  -46.2001  -24.7938   73.8667 H   0  0  0  1  0  0  0  0  0  0  0  0
  -46.7720  -22.9500   74.8660 C   0  0  0  1  0  0  0  0  0  0  0  0
  -48.0010  -23.3600   75.3380 O   0  0  0  1  0  0  0  0  0  0  0  0
  -48.4837  -22.6994   75.8401 H   0  0  0  1  0  0  0  0  0  0  0  0
  -46.3920  -21.6040   75.1900 C   0  0  0  1  0  0  0  0  0  0  0  0
  -47.0635  -20.9775   75.7583 H   0  0  0  1  0  0  0  0  0  0  0  0
  -45.1510  -21.0990   74.7710 C   0  0  0  1  0  0  0  0  0  0  0  0
  -44.8607  -20.0922   75.0329 H   0  0  0  1  0  0  0  0  0  0  0  0
  -44.2390  -19.1780   71.9410 O   0  0  0  1  0  0  0  0  0  0  0  0
  -44.8310  -19.3810   69.2410 N   0  0  0  1  0  0  0  0  0  0  0  0
  -45.3418  -18.7187   69.8071 H   0  0  0  1  0  0  0  0  0  0  0  0
  -44.6870  -19.1000   67.8890 C   0  0  0  1  0  0  0  0  0  0  0  0
  -44.0790  -19.8190   67.1090 O   0  0  0  1  0  0  0  0  0  0  0  0
  -45.4070  -17.8340   67.4640 C   0  0  0  1  0  0  0  0  0  0  0  0
  -45.5191  -17.1446   68.3008 H   0  0  0  1  0  0  0  0  0  0  0  0
  -46.7920  -18.2790   66.9880 C   0  0  0  1  0  0  0  0  0  0  0  0
  -47.9390  -17.9030   67.6910 C   0  0  0  1  0  0  0  0  0  0  0  0
  -47.8686  -17.2440   68.5437 H   0  0  0  1  0  0  0  0  0  0  0  0
  -49.1880  -18.3970   67.2700 C   0  0  0  1  0  0  0  0  0  0  0  0
  -50.0790  -18.1102   67.8088 H   0  0  0  1  0  0  0  0  0  0  0  0
  -46.9160  -19.1540   65.8530 C   0  0  0  1  0  0  0  0  0  0  0  0
  -46.0285  -19.4383   65.3071 H   0  0  0  1  0  0  0  0  0  0  0  0
  -48.1600  -19.6460   65.4390 C   0  0  0  1  0  0  0  0  0  0  0  0
  -48.2363  -20.3059   64.5875 H   0  0  0  1  0  0  0  0  0  0  0  0
  -49.3010  -19.2650   66.1510 C   0  0  0  1  0  0  0  0  0  0  0  0
  -50.2712  -19.6315   65.8496 H   0  0  0  1  0  0  0  0  0  0  0  0
  -44.6090  -16.9290   66.5050 C   0  0  0  1  0  0  0  0  0  0  0  0
  -43.2450  -16.6910   66.7460 C   0  0  0  1  0  0  0  0  0  0  0  0
  -42.7509  -17.1929   67.5647 H   0  0  0  1  0  0  0  0  0  0  0  0
  -42.5140  -15.8010   65.9270 C   0  0  0  1  0  0  0  0  0  0  0  0
  -41.4684  -15.6253   66.1325 H   0  0  0  1  0  0  0  0  0  0  0  0
  -43.1280  -15.1420   64.8500 C   0  0  0  1  0  0  0  0  0  0  0  0
  -42.5627  -14.4605   64.2316 H   0  0  0  1  0  0  0  0  0  0  0  0
  -44.4780  -15.3790   64.5890 C   0  0  0  1  0  0  0  0  0  0  0  0
  -44.9601  -14.8861   63.7577 H   0  0  0  1  0  0  0  0  0  0  0  0
  -45.2150  -16.2600   65.4070 C   0  0  0  1  0  0  0  0  0  0  0  0
  -46.2603  -16.4297   65.1951 H   0  0  0  1  0  0  0  0  0  0  0  0
  -54.1366  -17.6073   78.4140 O   0  0  0  1  0  0  0  0  0  0  0  0
  1  2  1  0  0  0  0
  1  3  1  0  0  0  0
  1  4  1  0  0  0  0
  1 14  1  0  0  0  0
  4  5  1  0  0  0  0
  4  6  1  0  0  0  0
  6  7  1  0  0  0  0
  6 92  2  0  0  0  0
  7  8  1  0  0  0  0
  7  9  1  0  0  0  0
  7 10  1  0  0  0  0
 10 11  1  0  0  0  0
 10 12  1  0  0  0  0
 10 13  1  0  0  0  0
 14 15  1  0  0  0  0
 14 16  1  0  0  0  0
 14 17  1  0  0  0  0
 17 18  1  0  0  0  0
 17 19  1  0  0  0  0
 17 20  1  0  0  0  0
 20 21  1  0  0  0  0
 20 22  1  0  0  0  0
 20 23  1  0  0  0  0
 23 24  1  0  0  0  0
 23 25  1  0  0  0  0
 25 26  2  0  0  0  0
 25 27  1  0  0  0  0
 27 28  1  0  0  0  0
 27 29  1  0  0  0  0
 29 30  1  0  0  0  0
 29 33  2  0  0  0  0
 30 31  1  0  0  0  0
 30 32  1  0  0  0  0
 33 34  1  0  0  0  0
 34 35  1  0  0  0  0
 34 36  1  0  0  0  0
 34 37  1  0  0  0  0
 37 38  1  0  0  0  0
 37 39  1  0  0  0  0
 37 40  1  0  0  0  0
 40 41  1  0  0  0  0
 40 42  1  0  0  0  0
 40 43  1  0  0  0  0
 43 44  1  0  0  0  0
 43 45  1  0  0  0  0
 43 64  1  0  0  0  0
 45 46  1  0  0  0  0
 45 63  2  0  0  0  0
 46 47  1  0  0  0  0
 46 48  1  0  0  0  0
 48 49  1  0  0  0  0
 48 50  1  0  0  0  0
 48 51  1  0  0  0  0
 51 52  1  0  0  0  0
 51 61  2  0  0  0  0
 52 53  1  0  0  0  0
 52 54  2  0  0  0  0
 54 55  1  0  0  0  0
 54 56  1  0  0  0  0
 56 57  1  0  0  0  0
 56 59  2  0  0  0  0
 57 58  1  0  0  0  0
 59 60  1  0  0  0  0
 59 61  1  0  0  0  0
 61 62  1  0  0  0  0
 64 65  1  0  0  0  0
 64 66  1  0  0  0  0
 66 67  2  0  0  0  0
 66 68  1  0  0  0  0
 68 69  1  0  0  0  0
 68 70  1  0  0  0  0
 68 81  1  0  0  0  0
 70 71  2  0  0  0  0
 70 75  1  0  0  0  0
 71 72  1  0  0  0  0
 71 73  1  0  0  0  0
 73 74  1  0  0  0  0
 73 79  2  0  0  0  0
 75 76  1  0  0  0  0
 75 77  2  0  0  0  0
 77 78  1  0  0  0  0
 77 79  1  0  0  0  0
 79 80  1  0  0  0  0
 81 82  1  0  0  0  0
 81 90  2  0  0  0  0
 82 83  1  0  0  0  0
 82 84  2  0  0  0  0
 84 85  1  0  0  0  0
 84 86  1  0  0  0  0
 86 87  1  0  0  0  0
 86 88  2  0  0  0  0
 88 89  1  0  0  0  0
 88 90  1  0  0  0  0
 90 91  1  0  0  0  0
M  END
> <ConfScore>
-0.707785 

> <SampleByParts>
10 7 6 92 4 1 14 17 20 23 25 26 27 29 30 33

$$$$
NPY1_MK299_12302016.pdb.B
  MOE2014           3D

 92 94  0  0  0  0  0  0  0  0999 V2000
  -54.8898  -16.8158   75.8022 C   0  0  0  1  0  0  0  0  0  0  0  0
  -53.9847  -16.3969   76.2514 H   0  0  0  1  0  0  0  0  0  0  0  0
  -55.7079  -16.1054   75.9612 H   0  0  0  1  0  0  0  0  0  0  0  0
  -55.2526  -18.0452   76.4899 N   0  0  0  1  0  0  0  0  0  0  0  0
  -56.0394  -18.5705   76.1275 H   0  0  0  1  0  0  0  0  0  0  0  0
  -54.6744  -18.6195   77.5894 C   0  0  0  1  0  0  0  0  0  0  0  0
  -55.2776  -19.9146   78.0984 C   0  0  0  1  0  0  0  0  0  0  0  0
  -54.5076  -20.6930   78.0689 H   0  0  0  1  0  0  0  0  0  0  0  0
  -56.0971  -20.2115   77.4363 H   0  0  0  1  0  0  0  0  0  0  0  0
  -55.8052  -19.7903   79.5165 C   0  0  0  1  0  0  0  0  0  0  0  0
  -56.2443  -20.7371   79.8456 H   0  0  0  1  0  0  0  0  0  0  0  0
  -56.5748  -19.0156   79.5789 H   0  0  0  1  0  0  0  0  0  0  0  0
  -55.0038  -19.5239   80.2132 H   0  0  0  1  0  0  0  0  0  0  0  0
  -54.6913  -17.0713   74.3135 C   0  0  0  1  0  0  0  0  0  0  0  0
  -55.6129  -17.5020   73.9074 H   0  0  0  1  0  0  0  0  0  0  0  0
  -54.5443  -16.1180   73.7900 H   0  0  0  1  0  0  0  0  0  0  0  0
  -53.5013  -17.9996   74.0310 C   0  0  0  1  0  0  0  0  0  0  0  0
  -52.5896  -17.5621   74.4377 H   0  0  0  1  0  0  0  0  0  0  0  0
  -53.6834  -18.9647   74.5038 H   0  0  0  1  0  0  0  0  0  0  0  0
  -53.3236  -18.2103   72.4986 C   0  0  0  1  0  0  0  0  0  0  0  0
  -53.2135  -17.2432   72.0078 H   0  0  0  1  0  0  0  0  0  0  0  0
  -54.1973  -18.7238   72.0973 H   0  0  0  1  0  0  0  0  0  0  0  0
  -52.1280  -19.0191   72.2603 N   0  0  0  1  0  0  0  0  0  0  0  0
  -51.5786  -19.2591   73.0731 H   0  0  0  1  0  0  0  0  0  0  0  0
  -51.6594  -19.4991   71.0244 C   0  0  0  1  0  0  0  0  0  0  0  0
  -52.2504  -19.1989   69.9736 O   0  0  0  1  0  0  0  0  0  0  0  0
  -50.4600  -20.2550   71.1740 N   0  0  0  1  0  0  0  0  0  0  0  0
  -50.1228  -20.3188   72.1239 H   0  0  0  1  0  0  0  0  0  0  0  0
  -49.6900  -20.9060   70.2590 C   0  0  0  1  0  0  0  0  0  0  0  0
  -50.2570  -20.8250   69.0000 N   0  0  0  1  0  0  0  0  0  0  0  0
  -49.8842  -21.3783   68.2417 H   0  0  0  1  0  0  0  0  0  0  0  0
  -51.0438  -20.2125   68.8389 H   0  0  0  1  0  0  0  0  0  0  0  0
  -48.6290  -21.7900   70.2920 N   0  0  0  1  0  0  0  0  0  0  0  0
  -47.7070  -22.1200   71.3230 C   0  0  0  1  0  0  0  0  0  0  0  0
  -48.1435  -21.9395   72.3054 H   0  0  0  1  0  0  0  0  0  0  0  0
  -47.3992  -23.1630   71.2482 H   0  0  0  1  0  0  0  0  0  0  0  0
  -46.5220  -21.1840   71.0740 C   0  0  0  1  0  0  0  0  0  0  0  0
  -46.9258  -20.2178   70.7716 H   0  0  0  1  0  0  0  0  0  0  0  0
  -45.9869  -21.0750   72.0173 H   0  0  0  1  0  0  0  0  0  0  0  0
  -45.4860  -21.6160   69.9960 C   0  0  0  1  0  0  0  0  0  0  0  0
  -45.9831  -21.6765   69.0278 H   0  0  0  1  0  0  0  0  0  0  0  0
  -45.0840  -22.5942   70.2597 H   0  0  0  1  0  0  0  0  0  0  0  0
  -44.2930  -20.5720   69.9030 C   0  0  0  1  0  0  0  0  0  0  0  0
  -43.4175  -20.9189   69.3542 H   0  0  0  1  0  0  0  0  0  0  0  0
  -43.9430  -20.2610   71.3950 C   0  0  0  1  0  0  0  0  0  0  0  0
  -43.2680  -21.2970   72.0370 N   0  0  0  1  0  0  0  0  0  0  0  0
  -42.9631  -22.0791   71.4753 H   0  0  0  1  0  0  0  0  0  0  0  0
  -42.9760  -21.3290   73.4430 C   0  0  0  1  0  0  0  0  0  0  0  0
  -42.1220  -21.9707   73.6596 H   0  0  0  1  0  0  0  0  0  0  0  0
  -42.7882  -20.3295   73.8353 H   0  0  0  1  0  0  0  0  0  0  0  0
  -44.2750  -21.9160   74.0000 C   0  0  0  1  0  0  0  0  0  0  0  0
  -44.6710  -23.2570   73.6750 C   0  0  0  1  0  0  0  0  0  0  0  0
  -44.0095  -23.8778   73.0890 H   0  0  0  1  0  0  0  0  0  0  0  0
  -45.9140  -23.7810   74.1090 C   0  0  0  1  0  0  0  0  0  0  0  0
  -46.2001  -24.7938   73.8667 H   0  0  0  1  0  0  0  0  0  0  0  0
  -46.7720  -22.9500   74.8660 C   0  0  0  1  0  0  0  0  0  0  0  0
  -48.0010  -23.3600   75.3380 O   0  0  0  1  0  0  0  0  0  0  0  0
  -48.4837  -22.6994   75.8401 H   0  0  0  1  0  0  0  0  0  0  0  0
  -46.3920  -21.6040   75.1900 C   0  0  0  1  0  0  0  0  0  0  0  0
  -47.0635  -20.9775   75.7583 H   0  0  0  1  0  0  0  0  0  0  0  0
  -45.1510  -21.0990   74.7710 C   0  0  0  1  0  0  0  0  0  0  0  0
  -44.8607  -20.0922   75.0329 H   0  0  0  1  0  0  0  0  0  0  0  0
  -44.2390  -19.1780   71.9410 O   0  0  0  1  0  0  0  0  0  0  0  0
  -44.8310  -19.3810   69.2410 N   0  0  0  1  0  0  0  0  0  0  0  0
  -45.3418  -18.7187   69.8071 H   0  0  0  1  0  0  0  0  0  0  0  0
  -44.6870  -19.1000   67.8890 C   0  0  0  1  0  0  0  0  0  0  0  0
  -44.0790  -19.8190   67.1090 O   0  0  0  1  0  0  0  0  0  0  0  0
  -45.4070  -17.8340   67.4640 C   0  0  0  1  0  0  0  0  0  0  0  0
  -45.5191  -17.1446   68.3008 H   0  0  0  1  0  0  0  0  0  0  0  0
  -46.7920  -18.2790   66.9880 C   0  0  0  1  0  0  0  0  0  0  0  0
  -47.9390  -17.9030   67.6910 C   0  0  0  1  0  0  0  0  0  0  0  0
  -47.8686  -17.2440   68.5437 H   0  0  0  1  0  0  0  0  0  0  0  0
  -49.1880  -18.3970   67.2700 C   0  0  0  1  0  0  0  0  0  0  0  0
  -50.0790  -18.1102   67.8088 H   0  0  0  1  0  0  0  0  0  0  0  0
  -46.9160  -19.1540   65.8530 C   0  0  0  1  0  0  0  0  0  0  0  0
  -46.0285  -19.4383   65.3071 H   0  0  0  1  0  0  0  0  0  0  0  0
  -48.1600  -19.6460   65.4390 C   0  0  0  1  0  0  0  0  0  0  0  0
  -48.2363  -20.3059   64.5875 H   0  0  0  1  0  0  0  0  0  0  0  0
  -49.3010  -19.2650   66.1510 C   0  0  0  1  0  0  0  0  0  0  0  0
  -50.2712  -19.6315   65.8496 H   0  0  0  1  0  0  0  0  0  0  0  0
  -44.6090  -16.9290   66.5050 C   0  0  0  1  0  0  0  0  0  0  0  0
  -43.2450  -16.6910   66.7460 C   0  0  0  1  0  0  0  0  0  0  0  0
  -42.7509  -17.1929   67.5647 H   0  0  0  1  0  0  0  0  0  0  0  0
  -42.5140  -15.8010   65.9270 C   0  0  0  1  0  0  0  0  0  0  0  0
  -41.4684  -15.6253   66.1325 H   0  0  0  1  0  0  0  0  0  0  0  0
  -43.1280  -15.1420   64.8500 C   0  0  0  1  0  0  0  0  0  0  0  0
  -42.5627  -14.4605   64.2316 H   0  0  0  1  0  0  0  0  0  0  0  0
  -44.4780  -15.3790   64.5890 C   0  0  0  1  0  0  0  0  0  0  0  0
  -44.9601  -14.8861   63.7577 H   0  0  0  1  0  0  0  0  0  0  0  0
  -45.2150  -16.2600   65.4070 C   0  0  0  1  0  0  0  0  0  0  0  0
  -46.2603  -16.4297   65.1951 H   0  0  0  1  0  0  0  0  0  0  0  0
  -53.6976  -18.0782   78.1055 O   0  0  0  1  0  0  0  0  0  0  0  0
  1  2  1  0  0  0  0
  1  3  1  0  0  0  0
  1  4  1  0  0  0  0
  1 14  1  0  0  0  0
  4  5  1  0  0  0  0
  4  6  1  0  0  0  0
  6  7  1  0  0  0  0
  6 92  2  0  0  0  0
  7  8  1  0  0  0  0
  7  9  1  0  0  0  0
  7 10  1  0  0  0  0
 10 11  1  0  0  0  0
 10 12  1  0  0  0  0
 10 13  1  0  0  0  0
 14 15  1  0  0  0  0
 14 16  1  0  0  0  0
 14 17  1  0  0  0  0
 17 18  1  0  0  0  0
 17 19  1  0  0  0  0
 17 20  1  0  0  0  0
 20 21  1  0  0  0  0
 20 22  1  0  0  0  0
 20 23  1  0  0  0  0
 23 24  1  0  0  0  0
 23 25  1  0  0  0  0
 25 26  2  0  0  0  0
 25 27  1  0  0  0  0
 27 28  1  0  0  0  0
 27 29  1  0  0  0  0
 29 30  1  0  0  0  0
 29 33  2  0  0  0  0
 30 31  1  0  0  0  0
 30 32  1  0  0  0  0
 33 34  1  0  0  0  0
 34 35  1  0  0  0  0
 34 36  1  0  0  0  0
 34 37  1  0  0  0  0
 37 38  1  0  0  0  0
 37 39  1  0  0  0  0
 37 40  1  0  0  0  0
 40 41  1  0  0  0  0
 40 42  1  0  0  0  0
 40 43  1  0  0  0  0
 43 44  1  0  0  0  0
 43 45  1  0  0  0  0
 43 64  1  0  0  0  0
 45 46  1  0  0  0  0
 45 63  2  0  0  0  0
 46 47  1  0  0  0  0
 46 48  1  0  0  0  0
 48 49  1  0  0  0  0
 48 50  1  0  0  0  0
 48 51  1  0  0  0  0
 51 52  1  0  0  0  0
 51 61  2  0  0  0  0
 52 53  1  0  0  0  0
 52 54  2  0  0  0  0
 54 55  1  0  0  0  0
 54 56  1  0  0  0  0
 56 57  1  0  0  0  0
 56 59  2  0  0  0  0
 57 58  1  0  0  0  0
 59 60  1  0  0  0  0
 59 61  1  0  0  0  0
 61 62  1  0  0  0  0
 64 65  1  0  0  0  0
 64 66  1  0  0  0  0
 66 67  2  0  0  0  0
 66 68  1  0  0  0  0
 68 69  1  0  0  0  0
 68 70  1  0  0  0  0
 68 81  1  0  0  0  0
 70 71  2  0  0  0  0
 70 75  1  0  0  0  0
 71 72  1  0  0  0  0
 71 73  1  0  0  0  0
 73 74  1  0  0  0  0
 73 79  2  0  0  0  0
 75 76  1  0  0  0  0
 75 77  2  0  0  0  0
 77 78  1  0  0  0  0
 77 79  1  0  0  0  0
 79 80  1  0  0  0  0
 81 82  1  0  0  0  0
 81 90  2  0  0  0  0
 82 83  1  0  0  0  0
 82 84  2  0  0  0  0
 84 85  1  0  0  0  0
 84 86  1  0  0  0  0
 86 87  1  0  0  0  0
 86 88  2  0  0  0  0
 88 89  1  0  0  0  0
 88 90  1  0  0  0  0
 90 91  1  0  0  0  0
M  END
> <ConfScore>
-0.706344 

> <SampleByParts>
10 7 6 92 4 1 14 17 20 23 25 26 27 29 30 33

$$$$
NPY1_MK299_12302016.pdb.B
  MOE2014           3D

 92 94  0  0  0  0  0  0  0  0999 V2000
  -54.8407  -16.7267   75.7857 C   0  0  0  1  0  0  0  0  0  0  0  0
  -53.9678  -16.2350   76.2245 H   0  0  0  1  0  0  0  0  0  0  0  0
  -55.7104  -16.0807   75.9452 H   0  0  0  1  0  0  0  0  0  0  0  0
  -55.1021  -17.9746   76.4861 N   0  0  0  1  0  0  0  0  0  0  0  0
  -55.9232  -18.5019   76.2141 H   0  0  0  1  0  0  0  0  0  0  0  0
  -54.3843  -18.5645   77.4911 C   0  0  0  1  0  0  0  0  0  0  0  0
  -54.8753  -19.9041   78.0053 C   0  0  0  1  0  0  0  0  0  0  0  0
  -54.1943  -20.6848   77.6495 H   0  0  0  1  0  0  0  0  0  0  0  0
  -55.8718  -20.1001   77.5972 H   0  0  0  1  0  0  0  0  0  0  0  0
  -54.9410  -19.9544   79.5213 C   0  0  0  1  0  0  0  0  0  0  0  0
  -55.3112  -20.9283   79.8560 H   0  0  0  1  0  0  0  0  0  0  0  0
  -55.6117  -19.1816   79.9075 H   0  0  0  1  0  0  0  0  0  0  0  0
  -53.9528  -19.7928   79.9641 H   0  0  0  1  0  0  0  0  0  0  0  0
  -54.6335  -16.9790   74.2976 C   0  0  0  1  0  0  0  0  0  0  0  0
  -55.5492  -17.4182   73.8872 H   0  0  0  1  0  0  0  0  0  0  0  0
  -54.4933  -16.0239   73.7756 H   0  0  0  1  0  0  0  0  0  0  0  0
  -53.4335  -17.8957   74.0194 C   0  0  0  1  0  0  0  0  0  0  0  0
  -52.5223  -17.4333   74.3991 H   0  0  0  1  0  0  0  0  0  0  0  0
  -53.5921  -18.8507   74.5203 H   0  0  0  1  0  0  0  0  0  0  0  0
  -53.2777  -18.1440   72.4902 C   0  0  0  1  0  0  0  0  0  0  0  0
  -53.1202  -17.1934   71.9806 H   0  0  0  1  0  0  0  0  0  0  0  0
  -54.1800  -18.6181   72.1040 H   0  0  0  1  0  0  0  0  0  0  0  0
  -52.1280  -19.0191   72.2603 N   0  0  0  1  0  0  0  0  0  0  0  0
  -51.6143  -19.3106   73.0795 H   0  0  0  1  0  0  0  0  0  0  0  0
  -51.6594  -19.4991   71.0244 C   0  0  0  1  0  0  0  0  0  0  0  0
  -52.2504  -19.1989   69.9736 O   0  0  0  1  0  0  0  0  0  0  0  0
  -50.4600  -20.2550   71.1740 N   0  0  0  1  0  0  0  0  0  0  0  0
  -50.1228  -20.3188   72.1239 H   0  0  0  1  0  0  0  0  0  0  0  0
  -49.6900  -20.9060   70.2590 C   0  0  0  1  0  0  0  0  0  0  0  0
  -50.2570  -20.8250   69.0000 N   0  0  0  1  0  0  0  0  0  0  0  0
  -49.8842  -21.3783   68.2417 H   0  0  0  1  0  0  0  0  0  0  0  0
  -51.0438  -20.2125   68.8389 H   0  0  0  1  0  0  0  0  0  0  0  0
  -48.6290  -21.7900   70.2920 N   0  0  0  1  0  0  0  0  0  0  0  0
  -47.7070  -22.1200   71.3230 C   0  0  0  1  0  0  0  0  0  0  0  0
  -48.1435  -21.9395   72.3054 H   0  0  0  1  0  0  0  0  0  0  0  0
  -47.3992  -23.1630   71.2482 H   0  0  0  1  0  0  0  0  0  0  0  0
  -46.5220  -21.1840   71.0740 C   0  0  0  1  0  0  0  0  0  0  0  0
  -46.9258  -20.2178   70.7716 H   0  0  0  1  0  0  0  0  0  0  0  0
  -45.9869  -21.0750   72.0173 H   0  0  0  1  0  0  0  0  0  0  0  0
  -45.4860  -21.6160   69.9960 C   0  0  0  1  0  0  0  0  0  0  0  0
  -45.9831  -21.6765   69.0278 H   0  0  0  1  0  0  0  0  0  0  0  0
  -45.0840  -22.5942   70.2597 H   0  0  0  1  0  0  0  0  0  0  0  0
  -44.2930  -20.5720   69.9030 C   0  0  0  1  0  0  0  0  0  0  0  0
  -43.4175  -20.9189   69.3542 H   0  0  0  1  0  0  0  0  0  0  0  0
  -43.9430  -20.2610   71.3950 C   0  0  0  1  0  0  0  0  0  0  0  0
  -43.2680  -21.2970   72.0370 N   0  0  0  1  0  0  0  0  0  0  0  0
  -42.9631  -22.0791   71.4753 H   0  0  0  1  0  0  0  0  0  0  0  0
  -42.9760  -21.3290   73.4430 C   0  0  0  1  0  0  0  0  0  0  0  0
  -42.1220  -21.9707   73.6596 H   0  0  0  1  0  0  0  0  0  0  0  0
  -42.7882  -20.3295   73.8353 H   0  0  0  1  0  0  0  0  0  0  0  0
  -44.2750  -21.9160   74.0000 C   0  0  0  1  0  0  0  0  0  0  0  0
  -44.6710  -23.2570   73.6750 C   0  0  0  1  0  0  0  0  0  0  0  0
  -44.0095  -23.8778   73.0890 H   0  0  0  1  0  0  0  0  0  0  0  0
  -45.9140  -23.7810   74.1090 C   0  0  0  1  0  0  0  0  0  0  0  0
  -46.2001  -24.7938   73.8667 H   0  0  0  1  0  0  0  0  0  0  0  0
  -46.7720  -22.9500   74.8660 C   0  0  0  1  0  0  0  0  0  0  0  0
  -48.0010  -23.3600   75.3380 O   0  0  0  1  0  0  0  0  0  0  0  0
  -48.4837  -22.6994   75.8401 H   0  0  0  1  0  0  0  0  0  0  0  0
  -46.3920  -21.6040   75.1900 C   0  0  0  1  0  0  0  0  0  0  0  0
  -47.0635  -20.9775   75.7583 H   0  0  0  1  0  0  0  0  0  0  0  0
  -45.1510  -21.0990   74.7710 C   0  0  0  1  0  0  0  0  0  0  0  0
  -44.8607  -20.0922   75.0329 H   0  0  0  1  0  0  0  0  0  0  0  0
  -44.2390  -19.1780   71.9410 O   0  0  0  1  0  0  0  0  0  0  0  0
  -44.8310  -19.3810   69.2410 N   0  0  0  1  0  0  0  0  0  0  0  0
  -45.3418  -18.7187   69.8071 H   0  0  0  1  0  0  0  0  0  0  0  0
  -44.6870  -19.1000   67.8890 C   0  0  0  1  0  0  0  0  0  0  0  0
  -44.0790  -19.8190   67.1090 O   0  0  0  1  0  0  0  0  0  0  0  0
  -45.4070  -17.8340   67.4640 C   0  0  0  1  0  0  0  0  0  0  0  0
  -45.5191  -17.1446   68.3008 H   0  0  0  1  0  0  0  0  0  0  0  0
  -46.7920  -18.2790   66.9880 C   0  0  0  1  0  0  0  0  0  0  0  0
  -47.9390  -17.9030   67.6910 C   0  0  0  1  0  0  0  0  0  0  0  0
  -47.8686  -17.2440   68.5437 H   0  0  0  1  0  0  0  0  0  0  0  0
  -49.1880  -18.3970   67.2700 C   0  0  0  1  0  0  0  0  0  0  0  0
  -50.0790  -18.1102   67.8088 H   0  0  0  1  0  0  0  0  0  0  0  0
  -46.9160  -19.1540   65.8530 C   0  0  0  1  0  0  0  0  0  0  0  0
  -46.0285  -19.4383   65.3071 H   0  0  0  1  0  0  0  0  0  0  0  0
  -48.1600  -19.6460   65.4390 C   0  0  0  1  0  0  0  0  0  0  0  0
  -48.2363  -20.3059   64.5875 H   0  0  0  1  0  0  0  0  0  0  0  0
  -49.3010  -19.2650   66.1510 C   0  0  0  1  0  0  0  0  0  0  0  0
  -50.2712  -19.6315   65.8496 H   0  0  0  1  0  0  0  0  0  0  0  0
  -44.6090  -16.9290   66.5050 C   0  0  0  1  0  0  0  0  0  0  0  0
  -43.2450  -16.6910   66.7460 C   0  0  0  1  0  0  0  0  0  0  0  0
  -42.7509  -17.1929   67.5647 H   0  0  0  1  0  0  0  0  0  0  0  0
  -42.5140  -15.8010   65.9270 C   0  0  0  1  0  0  0  0  0  0  0  0
  -41.4684  -15.6253   66.1325 H   0  0  0  1  0  0  0  0  0  0  0  0
  -43.1280  -15.1420   64.8500 C   0  0  0  1  0  0  0  0  0  0  0  0
  -42.5627  -14.4605   64.2316 H   0  0  0  1  0  0  0  0  0  0  0  0
  -44.4780  -15.3790   64.5890 C   0  0  0  1  0  0  0  0  0  0  0  0
  -44.9601  -14.8861   63.7577 H   0  0  0  1  0  0  0  0  0  0  0  0
  -45.2150  -16.2600   65.4070 C   0  0  0  1  0  0  0  0  0  0  0  0
  -46.2603  -16.4297   65.1951 H   0  0  0  1  0  0  0  0  0  0  0  0
  -53.3797  -18.0002   77.9221 O   0  0  0  1  0  0  0  0  0  0  0  0
  1  2  1  0  0  0  0
  1  3  1  0  0  0  0
  1  4  1  0  0  0  0
  1 14  1  0  0  0  0
  4  5  1  0  0  0  0
  4  6  1  0  0  0  0
  6  7  1  0  0  0  0
  6 92  2  0  0  0  0
  7  8  1  0  0  0  0
  7  9  1  0  0  0  0
  7 10  1  0  0  0  0
 10 11  1  0  0  0  0
 10 12  1  0  0  0  0
 10 13  1  0  0  0  0
 14 15  1  0  0  0  0
 14 16  1  0  0  0  0
 14 17  1  0  0  0  0
 17 18  1  0  0  0  0
 17 19  1  0  0  0  0
 17 20  1  0  0  0  0
 20 21  1  0  0  0  0
 20 22  1  0  0  0  0
 20 23  1  0  0  0  0
 23 24  1  0  0  0  0
 23 25  1  0  0  0  0
 25 26  2  0  0  0  0
 25 27  1  0  0  0  0
 27 28  1  0  0  0  0
 27 29  1  0  0  0  0
 29 30  1  0  0  0  0
 29 33  2  0  0  0  0
 30 31  1  0  0  0  0
 30 32  1  0  0  0  0
 33 34  1  0  0  0  0
 34 35  1  0  0  0  0
 34 36  1  0  0  0  0
 34 37  1  0  0  0  0
 37 38  1  0  0  0  0
 37 39  1  0  0  0  0
 37 40  1  0  0  0  0
 40 41  1  0  0  0  0
 40 42  1  0  0  0  0
 40 43  1  0  0  0  0
 43 44  1  0  0  0  0
 43 45  1  0  0  0  0
 43 64  1  0  0  0  0
 45 46  1  0  0  0  0
 45 63  2  0  0  0  0
 46 47  1  0  0  0  0
 46 48  1  0  0  0  0
 48 49  1  0  0  0  0
 48 50  1  0  0  0  0
 48 51  1  0  0  0  0
 51 52  1  0  0  0  0
 51 61  2  0  0  0  0
 52 53  1  0  0  0  0
 52 54  2  0  0  0  0
 54 55  1  0  0  0  0
 54 56  1  0  0  0  0
 56 57  1  0  0  0  0
 56 59  2  0  0  0  0
 57 58  1  0  0  0  0
 59 60  1  0  0  0  0
 59 61  1  0  0  0  0
 61 62  1  0  0  0  0
 64 65  1  0  0  0  0
 64 66  1  0  0  0  0
 66 67  2  0  0  0  0
 66 68  1  0  0  0  0
 68 69  1  0  0  0  0
 68 70  1  0  0  0  0
 68 81  1  0  0  0  0
 70 71  2  0  0  0  0
 70 75  1  0  0  0  0
 71 72  1  0  0  0  0
 71 73  1  0  0  0  0
 73 74  1  0  0  0  0
 73 79  2  0  0  0  0
 75 76  1  0  0  0  0
 75 77  2  0  0  0  0
 77 78  1  0  0  0  0
 77 79  1  0  0  0  0
 79 80  1  0  0  0  0
 81 82  1  0  0  0  0
 81 90  2  0  0  0  0
 82 83  1  0  0  0  0
 82 84  2  0  0  0  0
 84 85  1  0  0  0  0
 84 86  1  0  0  0  0
 86 87  1  0  0  0  0
 86 88  2  0  0  0  0
 88 89  1  0  0  0  0
 88 90  1  0  0  0  0
 90 91  1  0  0  0  0
M  END
> <ConfScore>
-0.706344 

> <SampleByParts>
10 7 6 92 4 1 14 17 20 23 25 26 27 29 30 33

$$$$
NPY1_MK299_12302016.pdb.B
  MOE2014           3D

 92 94  0  0  0  0  0  0  0  0999 V2000
  -54.8713  -16.7676   75.7884 C   0  0  0  1  0  0  0  0  0  0  0  0
  -54.0017  -16.2844   76.2429 H   0  0  0  1  0  0  0  0  0  0  0  0
  -55.7409  -16.1214   75.9477 H   0  0  0  1  0  0  0  0  0  0  0  0
  -55.1433  -18.0242   76.4689 N   0  0  0  1  0  0  0  0  0  0  0  0
  -55.9877  -18.5224   76.2137 H   0  0  0  1  0  0  0  0  0  0  0  0
  -54.4083  -18.6572   77.4344 C   0  0  0  1  0  0  0  0  0  0  0  0
  -54.9354  -19.9795   77.9575 C   0  0  0  1  0  0  0  0  0  0  0  0
  -54.1789  -20.7513   77.7792 H   0  0  0  1  0  0  0  0  0  0  0  0
  -55.8414  -20.2469   77.4046 H   0  0  0  1  0  0  0  0  0  0  0  0
  -55.2555  -19.9299   79.4408 C   0  0  0  1  0  0  0  0  0  0  0  0
  -55.6451  -20.8945   79.7804 H   0  0  0  1  0  0  0  0  0  0  0  0
  -56.0068  -19.1635   79.6513 H   0  0  0  1  0  0  0  0  0  0  0  0
  -54.3625  -19.6948   80.0289 H   0  0  0  1  0  0  0  0  0  0  0  0
  -54.6492  -17.0001   74.2992 C   0  0  0  1  0  0  0  0  0  0  0  0
  -55.5617  -17.4310   73.8733 H   0  0  0  1  0  0  0  0  0  0  0  0
  -54.5010  -16.0383   73.7918 H   0  0  0  1  0  0  0  0  0  0  0  0
  -53.4488  -17.9163   74.0210 C   0  0  0  1  0  0  0  0  0  0  0  0
  -52.5404  -17.4617   74.4164 H   0  0  0  1  0  0  0  0  0  0  0  0
  -53.6152  -18.8776   74.5070 H   0  0  0  1  0  0  0  0  0  0  0  0
  -53.2777  -18.1440   72.4902 C   0  0  0  1  0  0  0  0  0  0  0  0
  -53.1124  -17.1870   71.9954 H   0  0  0  1  0  0  0  0  0  0  0  0
  -54.1771  -18.6103   72.0881 H   0  0  0  1  0  0  0  0  0  0  0  0
  -52.1280  -19.0191   72.2603 N   0  0  0  1  0  0  0  0  0  0  0  0
  -51.6143  -19.3106   73.0795 H   0  0  0  1  0  0  0  0  0  0  0  0
  -51.6594  -19.4991   71.0244 C   0  0  0  1  0  0  0  0  0  0  0  0
  -52.2504  -19.1989   69.9736 O   0  0  0  1  0  0  0  0  0  0  0  0
  -50.4600  -20.2550   71.1740 N   0  0  0  1  0  0  0  0  0  0  0  0
  -50.1228  -20.3188   72.1239 H   0  0  0  1  0  0  0  0  0  0  0  0
  -49.6900  -20.9060   70.2590 C   0  0  0  1  0  0  0  0  0  0  0  0
  -50.2570  -20.8250   69.0000 N   0  0  0  1  0  0  0  0  0  0  0  0
  -49.8842  -21.3783   68.2417 H   0  0  0  1  0  0  0  0  0  0  0  0
  -51.0438  -20.2125   68.8389 H   0  0  0  1  0  0  0  0  0  0  0  0
  -48.6290  -21.7900   70.2920 N   0  0  0  1  0  0  0  0  0  0  0  0
  -47.7070  -22.1200   71.3230 C   0  0  0  1  0  0  0  0  0  0  0  0
  -48.1435  -21.9395   72.3054 H   0  0  0  1  0  0  0  0  0  0  0  0
  -47.3992  -23.1630   71.2482 H   0  0  0  1  0  0  0  0  0  0  0  0
  -46.5220  -21.1840   71.0740 C   0  0  0  1  0  0  0  0  0  0  0  0
  -46.9258  -20.2178   70.7716 H   0  0  0  1  0  0  0  0  0  0  0  0
  -45.9869  -21.0750   72.0173 H   0  0  0  1  0  0  0  0  0  0  0  0
  -45.4860  -21.6160   69.9960 C   0  0  0  1  0  0  0  0  0  0  0  0
  -45.9831  -21.6765   69.0278 H   0  0  0  1  0  0  0  0  0  0  0  0
  -45.0840  -22.5942   70.2597 H   0  0  0  1  0  0  0  0  0  0  0  0
  -44.2930  -20.5720   69.9030 C   0  0  0  1  0  0  0  0  0  0  0  0
  -43.4175  -20.9189   69.3542 H   0  0  0  1  0  0  0  0  0  0  0  0
  -43.9430  -20.2610   71.3950 C   0  0  0  1  0  0  0  0  0  0  0  0
  -43.2680  -21.2970   72.0370 N   0  0  0  1  0  0  0  0  0  0  0  0
  -42.9631  -22.0791   71.4753 H   0  0  0  1  0  0  0  0  0  0  0  0
  -42.9760  -21.3290   73.4430 C   0  0  0  1  0  0  0  0  0  0  0  0
  -42.1220  -21.9707   73.6596 H   0  0  0  1  0  0  0  0  0  0  0  0
  -42.7882  -20.3295   73.8353 H   0  0  0  1  0  0  0  0  0  0  0  0
  -44.2750  -21.9160   74.0000 C   0  0  0  1  0  0  0  0  0  0  0  0
  -44.6710  -23.2570   73.6750 C   0  0  0  1  0  0  0  0  0  0  0  0
  -44.0095  -23.8778   73.0890 H   0  0  0  1  0  0  0  0  0  0  0  0
  -45.9140  -23.7810   74.1090 C   0  0  0  1  0  0  0  0  0  0  0  0
  -46.2001  -24.7938   73.8667 H   0  0  0  1  0  0  0  0  0  0  0  0
  -46.7720  -22.9500   74.8660 C   0  0  0  1  0  0  0  0  0  0  0  0
  -48.0010  -23.3600   75.3380 O   0  0  0  1  0  0  0  0  0  0  0  0
  -48.4837  -22.6994   75.8401 H   0  0  0  1  0  0  0  0  0  0  0  0
  -46.3920  -21.6040   75.1900 C   0  0  0  1  0  0  0  0  0  0  0  0
  -47.0635  -20.9775   75.7583 H   0  0  0  1  0  0  0  0  0  0  0  0
  -45.1510  -21.0990   74.7710 C   0  0  0  1  0  0  0  0  0  0  0  0
  -44.8607  -20.0922   75.0329 H   0  0  0  1  0  0  0  0  0  0  0  0
  -44.2390  -19.1780   71.9410 O   0  0  0  1  0  0  0  0  0  0  0  0
  -44.8310  -19.3810   69.2410 N   0  0  0  1  0  0  0  0  0  0  0  0
  -45.3418  -18.7187   69.8071 H   0  0  0  1  0  0  0  0  0  0  0  0
  -44.6870  -19.1000   67.8890 C   0  0  0  1  0  0  0  0  0  0  0  0
  -44.0790  -19.8190   67.1090 O   0  0  0  1  0  0  0  0  0  0  0  0
  -45.4070  -17.8340   67.4640 C   0  0  0  1  0  0  0  0  0  0  0  0
  -45.5191  -17.1446   68.3008 H   0  0  0  1  0  0  0  0  0  0  0  0
  -46.7920  -18.2790   66.9880 C   0  0  0  1  0  0  0  0  0  0  0  0
  -47.9390  -17.9030   67.6910 C   0  0  0  1  0  0  0  0  0  0  0  0
  -47.8686  -17.2440   68.5437 H   0  0  0  1  0  0  0  0  0  0  0  0
  -49.1880  -18.3970   67.2700 C   0  0  0  1  0  0  0  0  0  0  0  0
  -50.0790  -18.1102   67.8088 H   0  0  0  1  0  0  0  0  0  0  0  0
  -46.9160  -19.1540   65.8530 C   0  0  0  1  0  0  0  0  0  0  0  0
  -46.0285  -19.4383   65.3071 H   0  0  0  1  0  0  0  0  0  0  0  0
  -48.1600  -19.6460   65.4390 C   0  0  0  1  0  0  0  0  0  0  0  0
  -48.2363  -20.3059   64.5875 H   0  0  0  1  0  0  0  0  0  0  0  0
  -49.3010  -19.2650   66.1510 C   0  0  0  1  0  0  0  0  0  0  0  0
  -50.2712  -19.6315   65.8496 H   0  0  0  1  0  0  0  0  0  0  0  0
  -44.6090  -16.9290   66.5050 C   0  0  0  1  0  0  0  0  0  0  0  0
  -43.2450  -16.6910   66.7460 C   0  0  0  1  0  0  0  0  0  0  0  0
  -42.7509  -17.1929   67.5647 H   0  0  0  1  0  0  0  0  0  0  0  0
  -42.5140  -15.8010   65.9270 C   0  0  0  1  0  0  0  0  0  0  0  0
  -41.4684  -15.6253   66.1325 H   0  0  0  1  0  0  0  0  0  0  0  0
  -43.1280  -15.1420   64.8500 C   0  0  0  1  0  0  0  0  0  0  0  0
  -42.5627  -14.4605   64.2316 H   0  0  0  1  0  0  0  0  0  0  0  0
  -44.4780  -15.3790   64.5890 C   0  0  0  1  0  0  0  0  0  0  0  0
  -44.9601  -14.8861   63.7577 H   0  0  0  1  0  0  0  0  0  0  0  0
  -45.2150  -16.2600   65.4070 C   0  0  0  1  0  0  0  0  0  0  0  0
  -46.2603  -16.4297   65.1951 H   0  0  0  1  0  0  0  0  0  0  0  0
  -53.3609  -18.1432   77.8246 O   0  0  0  1  0  0  0  0  0  0  0  0
  1  2  1  0  0  0  0
  1  3  1  0  0  0  0
  1  4  1  0  0  0  0
  1 14  1  0  0  0  0
  4  5  1  0  0  0  0
  4  6  1  0  0  0  0
  6  7  1  0  0  0  0
  6 92  2  0  0  0  0
  7  8  1  0  0  0  0
  7  9  1  0  0  0  0
  7 10  1  0  0  0  0
 10 11  1  0  0  0  0
 10 12  1  0  0  0  0
 10 13  1  0  0  0  0
 14 15  1  0  0  0  0
 14 16  1  0  0  0  0
 14 17  1  0  0  0  0
 17 18  1  0  0  0  0
 17 19  1  0  0  0  0
 17 20  1  0  0  0  0
 20 21  1  0  0  0  0
 20 22  1  0  0  0  0
 20 23  1  0  0  0  0
 23 24  1  0  0  0  0
 23 25  1  0  0  0  0
 25 26  2  0  0  0  0
 25 27  1  0  0  0  0
 27 28  1  0  0  0  0
 27 29  1  0  0  0  0
 29 30  1  0  0  0  0
 29 33  2  0  0  0  0
 30 31  1  0  0  0  0
 30 32  1  0  0  0  0
 33 34  1  0  0  0  0
 34 35  1  0  0  0  0
 34 36  1  0  0  0  0
 34 37  1  0  0  0  0
 37 38  1  0  0  0  0
 37 39  1  0  0  0  0
 37 40  1  0  0  0  0
 40 41  1  0  0  0  0
 40 42  1  0  0  0  0
 40 43  1  0  0  0  0
 43 44  1  0  0  0  0
 43 45  1  0  0  0  0
 43 64  1  0  0  0  0
 45 46  1  0  0  0  0
 45 63  2  0  0  0  0
 46 47  1  0  0  0  0
 46 48  1  0  0  0  0
 48 49  1  0  0  0  0
 48 50  1  0  0  0  0
 48 51  1  0  0  0  0
 51 52  1  0  0  0  0
 51 61  2  0  0  0  0
 52 53  1  0  0  0  0
 52 54  2  0  0  0  0
 54 55  1  0  0  0  0
 54 56  1  0  0  0  0
 56 57  1  0  0  0  0
 56 59  2  0  0  0  0
 57 58  1  0  0  0  0
 59 60  1  0  0  0  0
 59 61  1  0  0  0  0
 61 62  1  0  0  0  0
 64 65  1  0  0  0  0
 64 66  1  0  0  0  0
 66 67  2  0  0  0  0
 66 68  1  0  0  0  0
 68 69  1  0  0  0  0
 68 70  1  0  0  0  0
 68 81  1  0  0  0  0
 70 71  2  0  0  0  0
 70 75  1  0  0  0  0
 71 72  1  0  0  0  0
 71 73  1  0  0  0  0
 73 74  1  0  0  0  0
 73 79  2  0  0  0  0
 75 76  1  0  0  0  0
 75 77  2  0  0  0  0
 77 78  1  0  0  0  0
 77 79  1  0  0  0  0
 79 80  1  0  0  0  0
 81 82  1  0  0  0  0
 81 90  2  0  0  0  0
 82 83  1  0  0  0  0
 82 84  2  0  0  0  0
 84 85  1  0  0  0  0
 84 86  1  0  0  0  0
 86 87  1  0  0  0  0
 86 88  2  0  0  0  0
 88 89  1  0  0  0  0
 88 90  1  0  0  0  0
 90 91  1  0  0  0  0
M  END
> <ConfScore>
-0.706344 

> <SampleByParts>
10 7 6 92 4 1 14 17 20 23 25 26 27 29 30 33

$$$$
NPY1_MK299_12302016.pdb.B
  MOE2014           3D

 92 94  0  0  0  0  0  0  0  0999 V2000
  -54.7260  -16.5550   75.7581 C   0  0  0  1  0  0  0  0  0  0  0  0
  -54.6970  -17.4639   76.3659 H   0  0  0  1  0  0  0  0  0  0  0  0
  -53.9145  -15.8987   76.0894 H   0  0  0  1  0  0  0  0  0  0  0  0
  -55.9732  -15.8459   75.9985 N   0  0  0  1  0  0  0  0  0  0  0  0
  -56.5822  -15.6860   75.2049 H   0  0  0  1  0  0  0  0  0  0  0  0
  -56.4657  -15.3441   77.1727 C   0  0  0  1  0  0  0  0  0  0  0  0
  -57.8165  -14.6564   77.1253 C   0  0  0  1  0  0  0  0  0  0  0  0
  -57.9171  -14.1520   76.1582 H   0  0  0  1  0  0  0  0  0  0  0  0
  -57.8613  -13.9017   77.9168 H   0  0  0  1  0  0  0  0  0  0  0  0
  -58.9687  -15.6293   77.3011 C   0  0  0  1  0  0  0  0  0  0  0  0
  -59.9252  -15.0981   77.2752 H   0  0  0  1  0  0  0  0  0  0  0  0
  -58.8934  -16.1528   78.2585 H   0  0  0  1  0  0  0  0  0  0  0  0
  -58.9734  -16.3823   76.5064 H   0  0  0  1  0  0  0  0  0  0  0  0
  -54.5715  -16.8837   74.2785 C   0  0  0  1  0  0  0  0  0  0  0  0
  -55.4960  -17.3544   73.9271 H   0  0  0  1  0  0  0  0  0  0  0  0
  -54.4638  -15.9562   73.7019 H   0  0  0  1  0  0  0  0  0  0  0  0
  -53.3706  -17.8002   74.0034 C   0  0  0  1  0  0  0  0  0  0  0  0
  -52.4521  -17.3080   74.3231 H   0  0  0  1  0  0  0  0  0  0  0  0
  -53.4976  -18.7290   74.5596 H   0  0  0  1  0  0  0  0  0  0  0  0
  -53.2690  -18.1277   72.4846 C   0  0  0  1  0  0  0  0  0  0  0  0
  -53.1613  -17.2025   71.9184 H   0  0  0  1  0  0  0  0  0  0  0  0
  -54.1712  -18.6477   72.1625 H   0  0  0  1  0  0  0  0  0  0  0  0
  -52.1033  -18.9812   72.2541 N   0  0  0  1  0  0  0  0  0  0  0  0
  -51.5573  -19.2254   73.0679 H   0  0  0  1  0  0  0  0  0  0  0  0
  -51.6594  -19.4991   71.0244 C   0  0  0  1  0  0  0  0  0  0  0  0
  -52.2687  -19.2275   69.9763 O   0  0  0  1  0  0  0  0  0  0  0  0
  -50.4600  -20.2550   71.1740 N   0  0  0  1  0  0  0  0  0  0  0  0
  -50.1228  -20.3188   72.1239 H   0  0  0  1  0  0  0  0  0  0  0  0
  -49.6900  -20.9060   70.2590 C   0  0  0  1  0  0  0  0  0  0  0  0
  -50.2570  -20.8250   69.0000 N   0  0  0  1  0  0  0  0  0  0  0  0
  -49.8842  -21.3783   68.2417 H   0  0  0  1  0  0  0  0  0  0  0  0
  -51.0438  -20.2125   68.8389 H   0  0  0  1  0  0  0  0  0  0  0  0
  -48.6290  -21.7900   70.2920 N   0  0  0  1  0  0  0  0  0  0  0  0
  -47.7070  -22.1200   71.3230 C   0  0  0  1  0  0  0  0  0  0  0  0
  -48.1435  -21.9395   72.3054 H   0  0  0  1  0  0  0  0  0  0  0  0
  -47.3992  -23.1630   71.2482 H   0  0  0  1  0  0  0  0  0  0  0  0
  -46.5220  -21.1840   71.0740 C   0  0  0  1  0  0  0  0  0  0  0  0
  -46.9258  -20.2178   70.7716 H   0  0  0  1  0  0  0  0  0  0  0  0
  -45.9869  -21.0750   72.0173 H   0  0  0  1  0  0  0  0  0  0  0  0
  -45.4860  -21.6160   69.9960 C   0  0  0  1  0  0  0  0  0  0  0  0
  -45.9831  -21.6765   69.0278 H   0  0  0  1  0  0  0  0  0  0  0  0
  -45.0840  -22.5942   70.2597 H   0  0  0  1  0  0  0  0  0  0  0  0
  -44.2930  -20.5720   69.9030 C   0  0  0  1  0  0  0  0  0  0  0  0
  -43.4175  -20.9189   69.3542 H   0  0  0  1  0  0  0  0  0  0  0  0
  -43.9430  -20.2610   71.3950 C   0  0  0  1  0  0  0  0  0  0  0  0
  -43.2680  -21.2970   72.0370 N   0  0  0  1  0  0  0  0  0  0  0  0
  -42.9631  -22.0791   71.4753 H   0  0  0  1  0  0  0  0  0  0  0  0
  -42.9760  -21.3290   73.4430 C   0  0  0  1  0  0  0  0  0  0  0  0
  -42.1220  -21.9707   73.6596 H   0  0  0  1  0  0  0  0  0  0  0  0
  -42.7882  -20.3295   73.8353 H   0  0  0  1  0  0  0  0  0  0  0  0
  -44.2750  -21.9160   74.0000 C   0  0  0  1  0  0  0  0  0  0  0  0
  -44.6710  -23.2570   73.6750 C   0  0  0  1  0  0  0  0  0  0  0  0
  -44.0095  -23.8778   73.0890 H   0  0  0  1  0  0  0  0  0  0  0  0
  -45.9140  -23.7810   74.1090 C   0  0  0  1  0  0  0  0  0  0  0  0
  -46.2001  -24.7938   73.8667 H   0  0  0  1  0  0  0  0  0  0  0  0
  -46.7720  -22.9500   74.8660 C   0  0  0  1  0  0  0  0  0  0  0  0
  -48.0010  -23.3600   75.3380 O   0  0  0  1  0  0  0  0  0  0  0  0
  -48.4837  -22.6994   75.8401 H   0  0  0  1  0  0  0  0  0  0  0  0
  -46.3920  -21.6040   75.1900 C   0  0  0  1  0  0  0  0  0  0  0  0
  -47.0635  -20.9775   75.7583 H   0  0  0  1  0  0  0  0  0  0  0  0
  -45.1510  -21.0990   74.7710 C   0  0  0  1  0  0  0  0  0  0  0  0
  -44.8607  -20.0922   75.0329 H   0  0  0  1  0  0  0  0  0  0  0  0
  -44.2390  -19.1780   71.9410 O   0  0  0  1  0  0  0  0  0  0  0  0
  -44.8310  -19.3810   69.2410 N   0  0  0  1  0  0  0  0  0  0  0  0
  -45.3418  -18.7187   69.8071 H   0  0  0  1  0  0  0  0  0  0  0  0
  -44.6870  -19.1000   67.8890 C   0  0  0  1  0  0  0  0  0  0  0  0
  -44.0790  -19.8190   67.1090 O   0  0  0  1  0  0  0  0  0  0  0  0
  -45.4070  -17.8340   67.4640 C   0  0  0  1  0  0  0  0  0  0  0  0
  -45.5191  -17.1446   68.3008 H   0  0  0  1  0  0  0  0  0  0  0  0
  -46.7920  -18.2790   66.9880 C   0  0  0  1  0  0  0  0  0  0  0  0
  -47.9390  -17.9030   67.6910 C   0  0  0  1  0  0  0  0  0  0  0  0
  -47.8686  -17.2440   68.5437 H   0  0  0  1  0  0  0  0  0  0  0  0
  -49.1880  -18.3970   67.2700 C   0  0  0  1  0  0  0  0  0  0  0  0
  -50.0790  -18.1102   67.8088 H   0  0  0  1  0  0  0  0  0  0  0  0
  -46.9160  -19.1540   65.8530 C   0  0  0  1  0  0  0  0  0  0  0  0
  -46.0285  -19.4383   65.3071 H   0  0  0  1  0  0  0  0  0  0  0  0
  -48.1600  -19.6460   65.4390 C   0  0  0  1  0  0  0  0  0  0  0  0
  -48.2363  -20.3059   64.5875 H   0  0  0  1  0  0  0  0  0  0  0  0
  -49.3010  -19.2650   66.1510 C   0  0  0  1  0  0  0  0  0  0  0  0
  -50.2712  -19.6315   65.8496 H   0  0  0  1  0  0  0  0  0  0  0  0
  -44.6090  -16.9290   66.5050 C   0  0  0  1  0  0  0  0  0  0  0  0
  -43.2450  -16.6910   66.7460 C   0  0  0  1  0  0  0  0  0  0  0  0
  -42.7509  -17.1929   67.5647 H   0  0  0  1  0  0  0  0  0  0  0  0
  -42.5140  -15.8010   65.9270 C   0  0  0  1  0  0  0  0  0  0  0  0
  -41.4684  -15.6253   66.1325 H   0  0  0  1  0  0  0  0  0  0  0  0
  -43.1280  -15.1420   64.8500 C   0  0  0  1  0  0  0  0  0  0  0  0
  -42.5627  -14.4605   64.2316 H   0  0  0  1  0  0  0  0  0  0  0  0
  -44.4780  -15.3790   64.5890 C   0  0  0  1  0  0  0  0  0  0  0  0
  -44.9601  -14.8861   63.7577 H   0  0  0  1  0  0  0  0  0  0  0  0
  -45.2150  -16.2600   65.4070 C   0  0  0  1  0  0  0  0  0  0  0  0
  -46.2603  -16.4297   65.1951 H   0  0  0  1  0  0  0  0  0  0  0  0
  -55.8099  -15.4788   78.2048 O   0  0  0  1  0  0  0  0  0  0  0  0
  1  2  1  0  0  0  0
  1  3  1  0  0  0  0
  1  4  1  0  0  0  0
  1 14  1  0  0  0  0
  4  5  1  0  0  0  0
  4  6  1  0  0  0  0
  6  7  1  0  0  0  0
  6 92  2  0  0  0  0
  7  8  1  0  0  0  0
  7  9  1  0  0  0  0
  7 10  1  0  0  0  0
 10 11  1  0  0  0  0
 10 12  1  0  0  0  0
 10 13  1  0  0  0  0
 14 15  1  0  0  0  0
 14 16  1  0  0  0  0
 14 17  1  0  0  0  0
 17 18  1  0  0  0  0
 17 19  1  0  0  0  0
 17 20  1  0  0  0  0
 20 21  1  0  0  0  0
 20 22  1  0  0  0  0
 20 23  1  0  0  0  0
 23 24  1  0  0  0  0
 23 25  1  0  0  0  0
 25 26  2  0  0  0  0
 25 27  1  0  0  0  0
 27 28  1  0  0  0  0
 27 29  1  0  0  0  0
 29 30  1  0  0  0  0
 29 33  2  0  0  0  0
 30 31  1  0  0  0  0
 30 32  1  0  0  0  0
 33 34  1  0  0  0  0
 34 35  1  0  0  0  0
 34 36  1  0  0  0  0
 34 37  1  0  0  0  0
 37 38  1  0  0  0  0
 37 39  1  0  0  0  0
 37 40  1  0  0  0  0
 40 41  1  0  0  0  0
 40 42  1  0  0  0  0
 40 43  1  0  0  0  0
 43 44  1  0  0  0  0
 43 45  1  0  0  0  0
 43 64  1  0  0  0  0
 45 46  1  0  0  0  0
 45 63  2  0  0  0  0
 46 47  1  0  0  0  0
 46 48  1  0  0  0  0
 48 49  1  0  0  0  0
 48 50  1  0  0  0  0
 48 51  1  0  0  0  0
 51 52  1  0  0  0  0
 51 61  2  0  0  0  0
 52 53  1  0  0  0  0
 52 54  2  0  0  0  0
 54 55  1  0  0  0  0
 54 56  1  0  0  0  0
 56 57  1  0  0  0  0
 56 59  2  0  0  0  0
 57 58  1  0  0  0  0
 59 60  1  0  0  0  0
 59 61  1  0  0  0  0
 61 62  1  0  0  0  0
 64 65  1  0  0  0  0
 64 66  1  0  0  0  0
 66 67  2  0  0  0  0
 66 68  1  0  0  0  0
 68 69  1  0  0  0  0
 68 70  1  0  0  0  0
 68 81  1  0  0  0  0
 70 71  2  0  0  0  0
 70 75  1  0  0  0  0
 71 72  1  0  0  0  0
 71 73  1  0  0  0  0
 73 74  1  0  0  0  0
 73 79  2  0  0  0  0
 75 76  1  0  0  0  0
 75 77  2  0  0  0  0
 77 78  1  0  0  0  0
 77 79  1  0  0  0  0
 79 80  1  0  0  0  0
 81 82  1  0  0  0  0
 81 90  2  0  0  0  0
 82 83  1  0  0  0  0
 82 84  2  0  0  0  0
 84 85  1  0  0  0  0
 84 86  1  0  0  0  0
 86 87  1  0  0  0  0
 86 88  2  0  0  0  0
 88 89  1  0  0  0  0
 88 90  1  0  0  0  0
 90 91  1  0  0  0  0
M  END
> <ConfScore>
-0.696607 

> <SampleByParts>
10 7 6 92 4 1 14 17 20 23 25 26 27 29 30 33

$$$$
NPY1_MK299_12302016.pdb.B
  MOE2014           3D

 92 94  0  0  0  0  0  0  0  0999 V2000
  -54.7312  -16.5522   75.7515 C   0  0  0  1  0  0  0  0  0  0  0  0
  -54.6754  -17.4480   76.3767 H   0  0  0  1  0  0  0  0  0  0  0  0
  -53.9273  -15.8743   76.0570 H   0  0  0  1  0  0  0  0  0  0  0  0
  -55.9878  -15.8621   75.9976 N   0  0  0  1  0  0  0  0  0  0  0  0
  -56.6256  -15.7569   75.2175 H   0  0  0  1  0  0  0  0  0  0  0  0
  -56.4555  -15.3137   77.1611 C   0  0  0  1  0  0  0  0  0  0  0  0
  -57.8341  -14.6824   77.1299 C   0  0  0  1  0  0  0  0  0  0  0  0
  -58.0951  -14.3649   78.1452 H   0  0  0  1  0  0  0  0  0  0  0  0
  -58.5624  -15.4308   76.8021 H   0  0  0  1  0  0  0  0  0  0  0  0
  -57.9018  -13.4835   76.2009 C   0  0  0  1  0  0  0  0  0  0  0  0
  -58.9118  -13.0624   76.1929 H   0  0  0  1  0  0  0  0  0  0  0  0
  -57.6413  -13.7688   75.1777 H   0  0  0  1  0  0  0  0  0  0  0  0
  -57.2063  -12.6996   76.5180 H   0  0  0  1  0  0  0  0  0  0  0  0
  -54.5932  -16.9076   74.2765 C   0  0  0  1  0  0  0  0  0  0  0  0
  -55.5066  -17.4186   73.9536 H   0  0  0  1  0  0  0  0  0  0  0  0
  -54.5300  -15.9897   73.6782 H   0  0  0  1  0  0  0  0  0  0  0  0
  -53.3655  -17.7865   73.9971 C   0  0  0  1  0  0  0  0  0  0  0  0
  -52.4594  -17.2550   74.2879 H   0  0  0  1  0  0  0  0  0  0  0  0
  -53.4482  -18.7068   74.5753 H   0  0  0  1  0  0  0  0  0  0  0  0
  -53.2812  -18.1434   72.4839 C   0  0  0  1  0  0  0  0  0  0  0  0
  -53.1999  -17.2282   71.8973 H   0  0  0  1  0  0  0  0  0  0  0  0
  -54.1782  -18.6868   72.1868 H   0  0  0  1  0  0  0  0  0  0  0  0
  -52.1032  -18.9795   72.2524 N   0  0  0  1  0  0  0  0  0  0  0  0
  -51.5314  -19.1836   73.0595 H   0  0  0  1  0  0  0  0  0  0  0  0
  -51.6792  -19.5304   71.0299 C   0  0  0  1  0  0  0  0  0  0  0  0
  -52.3208  -19.3084   69.9894 O   0  0  0  1  0  0  0  0  0  0  0  0
  -50.4600  -20.2550   71.1740 N   0  0  0  1  0  0  0  0  0  0  0  0
  -50.1058  -20.2919   72.1192 H   0  0  0  1  0  0  0  0  0  0  0  0
  -49.6900  -20.9060   70.2590 C   0  0  0  1  0  0  0  0  0  0  0  0
  -50.2570  -20.8250   69.0000 N   0  0  0  1  0  0  0  0  0  0  0  0
  -49.8842  -21.3783   68.2417 H   0  0  0  1  0  0  0  0  0  0  0  0
  -51.0438  -20.2125   68.8389 H   0  0  0  1  0  0  0  0  0  0  0  0
  -48.6290  -21.7900   70.2920 N   0  0  0  1  0  0  0  0  0  0  0  0
  -47.7070  -22.1200   71.3230 C   0  0  0  1  0  0  0  0  0  0  0  0
  -48.1435  -21.9395   72.3054 H   0  0  0  1  0  0  0  0  0  0  0  0
  -47.3992  -23.1630   71.2482 H   0  0  0  1  0  0  0  0  0  0  0  0
  -46.5220  -21.1840   71.0740 C   0  0  0  1  0  0  0  0  0  0  0  0
  -46.9258  -20.2178   70.7716 H   0  0  0  1  0  0  0  0  0  0  0  0
  -45.9869  -21.0750   72.0173 H   0  0  0  1  0  0  0  0  0  0  0  0
  -45.4860  -21.6160   69.9960 C   0  0  0  1  0  0  0  0  0  0  0  0
  -45.9831  -21.6765   69.0278 H   0  0  0  1  0  0  0  0  0  0  0  0
  -45.0840  -22.5942   70.2597 H   0  0  0  1  0  0  0  0  0  0  0  0
  -44.2930  -20.5720   69.9030 C   0  0  0  1  0  0  0  0  0  0  0  0
  -43.4175  -20.9189   69.3542 H   0  0  0  1  0  0  0  0  0  0  0  0
  -43.9430  -20.2610   71.3950 C   0  0  0  1  0  0  0  0  0  0  0  0
  -43.2680  -21.2970   72.0370 N   0  0  0  1  0  0  0  0  0  0  0  0
  -42.9631  -22.0791   71.4753 H   0  0  0  1  0  0  0  0  0  0  0  0
  -42.9760  -21.3290   73.4430 C   0  0  0  1  0  0  0  0  0  0  0  0
  -42.1220  -21.9707   73.6596 H   0  0  0  1  0  0  0  0  0  0  0  0
  -42.7882  -20.3295   73.8353 H   0  0  0  1  0  0  0  0  0  0  0  0
  -44.2750  -21.9160   74.0000 C   0  0  0  1  0  0  0  0  0  0  0  0
  -44.6710  -23.2570   73.6750 C   0  0  0  1  0  0  0  0  0  0  0  0
  -44.0095  -23.8778   73.0890 H   0  0  0  1  0  0  0  0  0  0  0  0
  -45.9140  -23.7810   74.1090 C   0  0  0  1  0  0  0  0  0  0  0  0
  -46.2001  -24.7938   73.8667 H   0  0  0  1  0  0  0  0  0  0  0  0
  -46.7720  -22.9500   74.8660 C   0  0  0  1  0  0  0  0  0  0  0  0
  -48.0010  -23.3600   75.3380 O   0  0  0  1  0  0  0  0  0  0  0  0
  -48.4837  -22.6994   75.8401 H   0  0  0  1  0  0  0  0  0  0  0  0
  -46.3920  -21.6040   75.1900 C   0  0  0  1  0  0  0  0  0  0  0  0
  -47.0635  -20.9775   75.7583 H   0  0  0  1  0  0  0  0  0  0  0  0
  -45.1510  -21.0990   74.7710 C   0  0  0  1  0  0  0  0  0  0  0  0
  -44.8607  -20.0922   75.0329 H   0  0  0  1  0  0  0  0  0  0  0  0
  -44.2390  -19.1780   71.9410 O   0  0  0  1  0  0  0  0  0  0  0  0
  -44.8310  -19.3810   69.2410 N   0  0  0  1  0  0  0  0  0  0  0  0
  -45.3418  -18.7187   69.8071 H   0  0  0  1  0  0  0  0  0  0  0  0
  -44.6870  -19.1000   67.8890 C   0  0  0  1  0  0  0  0  0  0  0  0
  -44.0790  -19.8190   67.1090 O   0  0  0  1  0  0  0  0  0  0  0  0
  -45.4070  -17.8340   67.4640 C   0  0  0  1  0  0  0  0  0  0  0  0
  -45.5191  -17.1446   68.3008 H   0  0  0  1  0  0  0  0  0  0  0  0
  -46.7920  -18.2790   66.9880 C   0  0  0  1  0  0  0  0  0  0  0  0
  -47.9390  -17.9030   67.6910 C   0  0  0  1  0  0  0  0  0  0  0  0
  -47.8686  -17.2440   68.5437 H   0  0  0  1  0  0  0  0  0  0  0  0
  -49.1880  -18.3970   67.2700 C   0  0  0  1  0  0  0  0  0  0  0  0
  -50.0790  -18.1102   67.8088 H   0  0  0  1  0  0  0  0  0  0  0  0
  -46.9160  -19.1540   65.8530 C   0  0  0  1  0  0  0  0  0  0  0  0
  -46.0285  -19.4383   65.3071 H   0  0  0  1  0  0  0  0  0  0  0  0
  -48.1600  -19.6460   65.4390 C   0  0  0  1  0  0  0  0  0  0  0  0
  -48.2363  -20.3059   64.5875 H   0  0  0  1  0  0  0  0  0  0  0  0
  -49.3010  -19.2650   66.1510 C   0  0  0  1  0  0  0  0  0  0  0  0
  -50.2712  -19.6315   65.8496 H   0  0  0  1  0  0  0  0  0  0  0  0
  -44.6090  -16.9290   66.5050 C   0  0  0  1  0  0  0  0  0  0  0  0
  -43.2450  -16.6910   66.7460 C   0  0  0  1  0  0  0  0  0  0  0  0
  -42.7509  -17.1929   67.5647 H   0  0  0  1  0  0  0  0  0  0  0  0
  -42.5140  -15.8010   65.9270 C   0  0  0  1  0  0  0  0  0  0  0  0
  -41.4684  -15.6253   66.1325 H   0  0  0  1  0  0  0  0  0  0  0  0
  -43.1280  -15.1420   64.8500 C   0  0  0  1  0  0  0  0  0  0  0  0
  -42.5627  -14.4605   64.2316 H   0  0  0  1  0  0  0  0  0  0  0  0
  -44.4780  -15.3790   64.5890 C   0  0  0  1  0  0  0  0  0  0  0  0
  -44.9601  -14.8861   63.7577 H   0  0  0  1  0  0  0  0  0  0  0  0
  -45.2150  -16.2600   65.4070 C   0  0  0  1  0  0  0  0  0  0  0  0
  -46.2603  -16.4297   65.1951 H   0  0  0  1  0  0  0  0  0  0  0  0
  -55.7560  -15.3641   78.1719 O   0  0  0  1  0  0  0  0  0  0  0  0
  1  2  1  0  0  0  0
  1  3  1  0  0  0  0
  1  4  1  0  0  0  0
  1 14  1  0  0  0  0
  4  5  1  0  0  0  0
  4  6  1  0  0  0  0
  6  7  1  0  0  0  0
  6 92  2  0  0  0  0
  7  8  1  0  0  0  0
  7  9  1  0  0  0  0
  7 10  1  0  0  0  0
 10 11  1  0  0  0  0
 10 12  1  0  0  0  0
 10 13  1  0  0  0  0
 14 15  1  0  0  0  0
 14 16  1  0  0  0  0
 14 17  1  0  0  0  0
 17 18  1  0  0  0  0
 17 19  1  0  0  0  0
 17 20  1  0  0  0  0
 20 21  1  0  0  0  0
 20 22  1  0  0  0  0
 20 23  1  0  0  0  0
 23 24  1  0  0  0  0
 23 25  1  0  0  0  0
 25 26  2  0  0  0  0
 25 27  1  0  0  0  0
 27 28  1  0  0  0  0
 27 29  1  0  0  0  0
 29 30  1  0  0  0  0
 29 33  2  0  0  0  0
 30 31  1  0  0  0  0
 30 32  1  0  0  0  0
 33 34  1  0  0  0  0
 34 35  1  0  0  0  0
 34 36  1  0  0  0  0
 34 37  1  0  0  0  0
 37 38  1  0  0  0  0
 37 39  1  0  0  0  0
 37 40  1  0  0  0  0
 40 41  1  0  0  0  0
 40 42  1  0  0  0  0
 40 43  1  0  0  0  0
 43 44  1  0  0  0  0
 43 45  1  0  0  0  0
 43 64  1  0  0  0  0
 45 46  1  0  0  0  0
 45 63  2  0  0  0  0
 46 47  1  0  0  0  0
 46 48  1  0  0  0  0
 48 49  1  0  0  0  0
 48 50  1  0  0  0  0
 48 51  1  0  0  0  0
 51 52  1  0  0  0  0
 51 61  2  0  0  0  0
 52 53  1  0  0  0  0
 52 54  2  0  0  0  0
 54 55  1  0  0  0  0
 54 56  1  0  0  0  0
 56 57  1  0  0  0  0
 56 59  2  0  0  0  0
 57 58  1  0  0  0  0
 59 60  1  0  0  0  0
 59 61  1  0  0  0  0
 61 62  1  0  0  0  0
 64 65  1  0  0  0  0
 64 66  1  0  0  0  0
 66 67  2  0  0  0  0
 66 68  1  0  0  0  0
 68 69  1  0  0  0  0
 68 70  1  0  0  0  0
 68 81  1  0  0  0  0
 70 71  2  0  0  0  0
 70 75  1  0  0  0  0
 71 72  1  0  0  0  0
 71 73  1  0  0  0  0
 73 74  1  0  0  0  0
 73 79  2  0  0  0  0
 75 76  1  0  0  0  0
 75 77  2  0  0  0  0
 77 78  1  0  0  0  0
 77 79  1  0  0  0  0
 79 80  1  0  0  0  0
 81 82  1  0  0  0  0
 81 90  2  0  0  0  0
 82 83  1  0  0  0  0
 82 84  2  0  0  0  0
 84 85  1  0  0  0  0
 84 86  1  0  0  0  0
 86 87  1  0  0  0  0
 86 88  2  0  0  0  0
 88 89  1  0  0  0  0
 88 90  1  0  0  0  0
 90 91  1  0  0  0  0
M  END
> <ConfScore>
-0.691987 

> <SampleByParts>
10 7 6 92 4 1 14 17 20 23 25 26 27 29 30 33

$$$$
NPY1_MK299_12302016.pdb.B
  MOE2014           3D

 92 94  0  0  0  0  0  0  0  0999 V2000
  -54.7477  -16.6087   75.7743 C   0  0  0  1  0  0  0  0  0  0  0  0
  -54.9450  -17.5087   76.3638 H   0  0  0  1  0  0  0  0  0  0  0  0
  -53.8263  -16.1517   76.1503 H   0  0  0  1  0  0  0  0  0  0  0  0
  -55.8172  -15.6448   75.9813 N   0  0  0  1  0  0  0  0  0  0  0  0
  -56.0377  -15.0176   75.2168 H   0  0  0  1  0  0  0  0  0  0  0  0
  -56.5969  -15.4484   77.0888 C   0  0  0  1  0  0  0  0  0  0  0  0
  -57.6156  -14.3262   77.0347 C   0  0  0  1  0  0  0  0  0  0  0  0
  -58.4492  -14.5798   77.6985 H   0  0  0  1  0  0  0  0  0  0  0  0
  -57.9989  -14.2406   76.0130 H   0  0  0  1  0  0  0  0  0  0  0  0
  -57.0303  -12.9911   77.4589 C   0  0  0  1  0  0  0  0  0  0  0  0
  -57.7877  -12.2038   77.3949 H   0  0  0  1  0  0  0  0  0  0  0  0
  -56.1909  -12.7122   76.8156 H   0  0  0  1  0  0  0  0  0  0  0  0
  -56.6641  -13.0311   78.4898 H   0  0  0  1  0  0  0  0  0  0  0  0
  -54.6070  -16.9460   74.2953 C   0  0  0  1  0  0  0  0  0  0  0  0
  -55.5482  -17.3840   73.9461 H   0  0  0  1  0  0  0  0  0  0  0  0
  -54.4669  -16.0242   73.7165 H   0  0  0  1  0  0  0  0  0  0  0  0
  -53.4401  -17.9056   74.0207 C   0  0  0  1  0  0  0  0  0  0  0  0
  -52.5139  -17.4761   74.4024 H   0  0  0  1  0  0  0  0  0  0  0  0
  -53.6344  -18.8539   74.5218 H   0  0  0  1  0  0  0  0  0  0  0  0
  -53.2896  -18.1604   72.4921 C   0  0  0  1  0  0  0  0  0  0  0  0
  -53.1498  -17.2105   71.9760 H   0  0  0  1  0  0  0  0  0  0  0  0
  -54.1868  -18.6505   72.1140 H   0  0  0  1  0  0  0  0  0  0  0  0
  -52.1280  -19.0191   72.2603 N   0  0  0  1  0  0  0  0  0  0  0  0
  -51.6050  -19.2978   73.0781 H   0  0  0  1  0  0  0  0  0  0  0  0
  -51.6594  -19.4991   71.0244 C   0  0  0  1  0  0  0  0  0  0  0  0
  -52.2504  -19.1989   69.9736 O   0  0  0  1  0  0  0  0  0  0  0  0
  -50.4600  -20.2550   71.1740 N   0  0  0  1  0  0  0  0  0  0  0  0
  -50.1228  -20.3188   72.1239 H   0  0  0  1  0  0  0  0  0  0  0  0
  -49.6900  -20.9060   70.2590 C   0  0  0  1  0  0  0  0  0  0  0  0
  -50.2570  -20.8250   69.0000 N   0  0  0  1  0  0  0  0  0  0  0  0
  -49.8842  -21.3783   68.2417 H   0  0  0  1  0  0  0  0  0  0  0  0
  -51.0438  -20.2125   68.8389 H   0  0  0  1  0  0  0  0  0  0  0  0
  -48.6290  -21.7900   70.2920 N   0  0  0  1  0  0  0  0  0  0  0  0
  -47.7070  -22.1200   71.3230 C   0  0  0  1  0  0  0  0  0  0  0  0
  -48.1435  -21.9395   72.3054 H   0  0  0  1  0  0  0  0  0  0  0  0
  -47.3992  -23.1630   71.2482 H   0  0  0  1  0  0  0  0  0  0  0  0
  -46.5220  -21.1840   71.0740 C   0  0  0  1  0  0  0  0  0  0  0  0
  -46.9258  -20.2178   70.7716 H   0  0  0  1  0  0  0  0  0  0  0  0
  -45.9869  -21.0750   72.0173 H   0  0  0  1  0  0  0  0  0  0  0  0
  -45.4860  -21.6160   69.9960 C   0  0  0  1  0  0  0  0  0  0  0  0
  -45.9831  -21.6765   69.0278 H   0  0  0  1  0  0  0  0  0  0  0  0
  -45.0840  -22.5942   70.2597 H   0  0  0  1  0  0  0  0  0  0  0  0
  -44.2930  -20.5720   69.9030 C   0  0  0  1  0  0  0  0  0  0  0  0
  -43.4175  -20.9189   69.3542 H   0  0  0  1  0  0  0  0  0  0  0  0
  -43.9430  -20.2610   71.3950 C   0  0  0  1  0  0  0  0  0  0  0  0
  -43.2680  -21.2970   72.0370 N   0  0  0  1  0  0  0  0  0  0  0  0
  -42.9631  -22.0791   71.4753 H   0  0  0  1  0  0  0  0  0  0  0  0
  -42.9760  -21.3290   73.4430 C   0  0  0  1  0  0  0  0  0  0  0  0
  -42.1220  -21.9707   73.6596 H   0  0  0  1  0  0  0  0  0  0  0  0
  -42.7882  -20.3295   73.8353 H   0  0  0  1  0  0  0  0  0  0  0  0
  -44.2750  -21.9160   74.0000 C   0  0  0  1  0  0  0  0  0  0  0  0
  -44.6710  -23.2570   73.6750 C   0  0  0  1  0  0  0  0  0  0  0  0
  -44.0095  -23.8778   73.0890 H   0  0  0  1  0  0  0  0  0  0  0  0
  -45.9140  -23.7810   74.1090 C   0  0  0  1  0  0  0  0  0  0  0  0
  -46.2001  -24.7938   73.8667 H   0  0  0  1  0  0  0  0  0  0  0  0
  -46.7720  -22.9500   74.8660 C   0  0  0  1  0  0  0  0  0  0  0  0
  -48.0010  -23.3600   75.3380 O   0  0  0  1  0  0  0  0  0  0  0  0
  -48.4837  -22.6994   75.8401 H   0  0  0  1  0  0  0  0  0  0  0  0
  -46.3920  -21.6040   75.1900 C   0  0  0  1  0  0  0  0  0  0  0  0
  -47.0635  -20.9775   75.7583 H   0  0  0  1  0  0  0  0  0  0  0  0
  -45.1510  -21.0990   74.7710 C   0  0  0  1  0  0  0  0  0  0  0  0
  -44.8607  -20.0922   75.0329 H   0  0  0  1  0  0  0  0  0  0  0  0
  -44.2390  -19.1780   71.9410 O   0  0  0  1  0  0  0  0  0  0  0  0
  -44.8310  -19.3810   69.2410 N   0  0  0  1  0  0  0  0  0  0  0  0
  -45.3418  -18.7187   69.8071 H   0  0  0  1  0  0  0  0  0  0  0  0
  -44.6870  -19.1000   67.8890 C   0  0  0  1  0  0  0  0  0  0  0  0
  -44.0790  -19.8190   67.1090 O   0  0  0  1  0  0  0  0  0  0  0  0
  -45.4070  -17.8340   67.4640 C   0  0  0  1  0  0  0  0  0  0  0  0
  -45.5191  -17.1446   68.3008 H   0  0  0  1  0  0  0  0  0  0  0  0
  -46.7920  -18.2790   66.9880 C   0  0  0  1  0  0  0  0  0  0  0  0
  -47.9390  -17.9030   67.6910 C   0  0  0  1  0  0  0  0  0  0  0  0
  -47.8686  -17.2440   68.5437 H   0  0  0  1  0  0  0  0  0  0  0  0
  -49.1880  -18.3970   67.2700 C   0  0  0  1  0  0  0  0  0  0  0  0
  -50.0790  -18.1102   67.8088 H   0  0  0  1  0  0  0  0  0  0  0  0
  -46.9160  -19.1540   65.8530 C   0  0  0  1  0  0  0  0  0  0  0  0
  -46.0285  -19.4383   65.3071 H   0  0  0  1  0  0  0  0  0  0  0  0
  -48.1600  -19.6460   65.4390 C   0  0  0  1  0  0  0  0  0  0  0  0
  -48.2363  -20.3059   64.5875 H   0  0  0  1  0  0  0  0  0  0  0  0
  -49.3010  -19.2650   66.1510 C   0  0  0  1  0  0  0  0  0  0  0  0
  -50.2712  -19.6315   65.8496 H   0  0  0  1  0  0  0  0  0  0  0  0
  -44.6090  -16.9290   66.5050 C   0  0  0  1  0  0  0  0  0  0  0  0
  -43.2450  -16.6910   66.7460 C   0  0  0  1  0  0  0  0  0  0  0  0
  -42.7509  -17.1929   67.5647 H   0  0  0  1  0  0  0  0  0  0  0  0
  -42.5140  -15.8010   65.9270 C   0  0  0  1  0  0  0  0  0  0  0  0
  -41.4684  -15.6253   66.1325 H   0  0  0  1  0  0  0  0  0  0  0  0
  -43.1280  -15.1420   64.8500 C   0  0  0  1  0  0  0  0  0  0  0  0
  -42.5627  -14.4605   64.2316 H   0  0  0  1  0  0  0  0  0  0  0  0
  -44.4780  -15.3790   64.5890 C   0  0  0  1  0  0  0  0  0  0  0  0
  -44.9601  -14.8861   63.7577 H   0  0  0  1  0  0  0  0  0  0  0  0
  -45.2150  -16.2600   65.4070 C   0  0  0  1  0  0  0  0  0  0  0  0
  -46.2603  -16.4297   65.1951 H   0  0  0  1  0  0  0  0  0  0  0  0
  -56.4514  -16.1849   78.0634 O   0  0  0  1  0  0  0  0  0  0  0  0
  1  2  1  0  0  0  0
  1  3  1  0  0  0  0
  1  4  1  0  0  0  0
  1 14  1  0  0  0  0
  4  5  1  0  0  0  0
  4  6  1  0  0  0  0
  6  7  1  0  0  0  0
  6 92  2  0  0  0  0
  7  8  1  0  0  0  0
  7  9  1  0  0  0  0
  7 10  1  0  0  0  0
 10 11  1  0  0  0  0
 10 12  1  0  0  0  0
 10 13  1  0  0  0  0
 14 15  1  0  0  0  0
 14 16  1  0  0  0  0
 14 17  1  0  0  0  0
 17 18  1  0  0  0  0
 17 19  1  0  0  0  0
 17 20  1  0  0  0  0
 20 21  1  0  0  0  0
 20 22  1  0  0  0  0
 20 23  1  0  0  0  0
 23 24  1  0  0  0  0
 23 25  1  0  0  0  0
 25 26  2  0  0  0  0
 25 27  1  0  0  0  0
 27 28  1  0  0  0  0
 27 29  1  0  0  0  0
 29 30  1  0  0  0  0
 29 33  2  0  0  0  0
 30 31  1  0  0  0  0
 30 32  1  0  0  0  0
 33 34  1  0  0  0  0
 34 35  1  0  0  0  0
 34 36  1  0  0  0  0
 34 37  1  0  0  0  0
 37 38  1  0  0  0  0
 37 39  1  0  0  0  0
 37 40  1  0  0  0  0
 40 41  1  0  0  0  0
 40 42  1  0  0  0  0
 40 43  1  0  0  0  0
 43 44  1  0  0  0  0
 43 45  1  0  0  0  0
 43 64  1  0  0  0  0
 45 46  1  0  0  0  0
 45 63  2  0  0  0  0
 46 47  1  0  0  0  0
 46 48  1  0  0  0  0
 48 49  1  0  0  0  0
 48 50  1  0  0  0  0
 48 51  1  0  0  0  0
 51 52  1  0  0  0  0
 51 61  2  0  0  0  0
 52 53  1  0  0  0  0
 52 54  2  0  0  0  0
 54 55  1  0  0  0  0
 54 56  1  0  0  0  0
 56 57  1  0  0  0  0
 56 59  2  0  0  0  0
 57 58  1  0  0  0  0
 59 60  1  0  0  0  0
 59 61  1  0  0  0  0
 61 62  1  0  0  0  0
 64 65  1  0  0  0  0
 64 66  1  0  0  0  0
 66 67  2  0  0  0  0
 66 68  1  0  0  0  0
 68 69  1  0  0  0  0
 68 70  1  0  0  0  0
 68 81  1  0  0  0  0
 70 71  2  0  0  0  0
 70 75  1  0  0  0  0
 71 72  1  0  0  0  0
 71 73  1  0  0  0  0
 73 74  1  0  0  0  0
 73 79  2  0  0  0  0
 75 76  1  0  0  0  0
 75 77  2  0  0  0  0
 77 78  1  0  0  0  0
 77 79  1  0  0  0  0
 79 80  1  0  0  0  0
 81 82  1  0  0  0  0
 81 90  2  0  0  0  0
 82 83  1  0  0  0  0
 82 84  2  0  0  0  0
 84 85  1  0  0  0  0
 84 86  1  0  0  0  0
 86 87  1  0  0  0  0
 86 88  2  0  0  0  0
 88 89  1  0  0  0  0
 88 90  1  0  0  0  0
 90 91  1  0  0  0  0
M  END
> <ConfScore>
-0.687935 

> <SampleByParts>
10 7 6 92 4 1 14 17 20 23 25 26 27 29 30 33

$$$$
NPY1_MK299_12302016.pdb.B
  MOE2014           3D

 92 94  0  0  0  0  0  0  0  0999 V2000
  -54.8533  -16.7493   75.7907 C   0  0  0  1  0  0  0  0  0  0  0  0
  -54.9294  -17.6673   76.3804 H   0  0  0  1  0  0  0  0  0  0  0  0
  -53.9906  -16.1819   76.1554 H   0  0  0  1  0  0  0  0  0  0  0  0
  -56.0311  -15.9255   76.0145 N   0  0  0  1  0  0  0  0  0  0  0  0
  -56.3108  -15.2956   75.2720 H   0  0  0  1  0  0  0  0  0  0  0  0
  -56.8462  -15.8689   77.1125 C   0  0  0  1  0  0  0  0  0  0  0  0
  -58.0016  -14.8874   77.0736 C   0  0  0  1  0  0  0  0  0  0  0  0
  -58.8850  -15.3717   77.5035 H   0  0  0  1  0  0  0  0  0  0  0  0
  -58.2183  -14.6316   76.0317 H   0  0  0  1  0  0  0  0  0  0  0  0
  -57.7069  -13.6142   77.8464 C   0  0  0  1  0  0  0  0  0  0  0  0
  -58.5548  -12.9250   77.7858 H   0  0  0  1  0  0  0  0  0  0  0  0
  -56.8251  -13.1089   77.4422 H   0  0  0  1  0  0  0  0  0  0  0  0
  -57.5154  -13.8297   78.9026 H   0  0  0  1  0  0  0  0  0  0  0  0
  -54.6921  -17.0651   74.3090 C   0  0  0  1  0  0  0  0  0  0  0  0
  -55.5922  -17.5845   73.9630 H   0  0  0  1  0  0  0  0  0  0  0  0
  -54.6394  -16.1315   73.7345 H   0  0  0  1  0  0  0  0  0  0  0  0
  -53.4452  -17.9141   74.0223 C   0  0  0  1  0  0  0  0  0  0  0  0
  -52.5539  -17.3809   74.3530 H   0  0  0  1  0  0  0  0  0  0  0  0
  -53.5256  -18.8574   74.5625 H   0  0  0  1  0  0  0  0  0  0  0  0
  -53.3236  -18.2103   72.4986 C   0  0  0  1  0  0  0  0  0  0  0  0
  -53.2444  -17.2718   71.9498 H   0  0  0  1  0  0  0  0  0  0  0  0
  -54.2055  -18.7549   72.1614 H   0  0  0  1  0  0  0  0  0  0  0  0
  -52.1280  -19.0191   72.2603 N   0  0  0  1  0  0  0  0  0  0  0  0
  -51.5786  -19.2591   73.0731 H   0  0  0  1  0  0  0  0  0  0  0  0
  -51.6594  -19.4991   71.0244 C   0  0  0  1  0  0  0  0  0  0  0  0
  -52.2504  -19.1989   69.9736 O   0  0  0  1  0  0  0  0  0  0  0  0
  -50.4600  -20.2550   71.1740 N   0  0  0  1  0  0  0  0  0  0  0  0
  -50.1228  -20.3188   72.1239 H   0  0  0  1  0  0  0  0  0  0  0  0
  -49.6900  -20.9060   70.2590 C   0  0  0  1  0  0  0  0  0  0  0  0
  -50.2570  -20.8250   69.0000 N   0  0  0  1  0  0  0  0  0  0  0  0
  -49.8842  -21.3783   68.2417 H   0  0  0  1  0  0  0  0  0  0  0  0
  -51.0438  -20.2125   68.8389 H   0  0  0  1  0  0  0  0  0  0  0  0
  -48.6290  -21.7900   70.2920 N   0  0  0  1  0  0  0  0  0  0  0  0
  -47.7070  -22.1200   71.3230 C   0  0  0  1  0  0  0  0  0  0  0  0
  -48.1435  -21.9395   72.3054 H   0  0  0  1  0  0  0  0  0  0  0  0
  -47.3992  -23.1630   71.2482 H   0  0  0  1  0  0  0  0  0  0  0  0
  -46.5220  -21.1840   71.0740 C   0  0  0  1  0  0  0  0  0  0  0  0
  -46.9258  -20.2178   70.7716 H   0  0  0  1  0  0  0  0  0  0  0  0
  -45.9869  -21.0750   72.0173 H   0  0  0  1  0  0  0  0  0  0  0  0
  -45.4860  -21.6160   69.9960 C   0  0  0  1  0  0  0  0  0  0  0  0
  -45.9831  -21.6765   69.0278 H   0  0  0  1  0  0  0  0  0  0  0  0
  -45.0840  -22.5942   70.2597 H   0  0  0  1  0  0  0  0  0  0  0  0
  -44.2930  -20.5720   69.9030 C   0  0  0  1  0  0  0  0  0  0  0  0
  -43.4175  -20.9189   69.3542 H   0  0  0  1  0  0  0  0  0  0  0  0
  -43.9430  -20.2610   71.3950 C   0  0  0  1  0  0  0  0  0  0  0  0
  -43.2680  -21.2970   72.0370 N   0  0  0  1  0  0  0  0  0  0  0  0
  -42.9631  -22.0791   71.4753 H   0  0  0  1  0  0  0  0  0  0  0  0
  -42.9760  -21.3290   73.4430 C   0  0  0  1  0  0  0  0  0  0  0  0
  -42.1220  -21.9707   73.6596 H   0  0  0  1  0  0  0  0  0  0  0  0
  -42.7882  -20.3295   73.8353 H   0  0  0  1  0  0  0  0  0  0  0  0
  -44.2750  -21.9160   74.0000 C   0  0  0  1  0  0  0  0  0  0  0  0
  -44.6710  -23.2570   73.6750 C   0  0  0  1  0  0  0  0  0  0  0  0
  -44.0095  -23.8778   73.0890 H   0  0  0  1  0  0  0  0  0  0  0  0
  -45.9140  -23.7810   74.1090 C   0  0  0  1  0  0  0  0  0  0  0  0
  -46.2001  -24.7938   73.8667 H   0  0  0  1  0  0  0  0  0  0  0  0
  -46.7720  -22.9500   74.8660 C   0  0  0  1  0  0  0  0  0  0  0  0
  -48.0010  -23.3600   75.3380 O   0  0  0  1  0  0  0  0  0  0  0  0
  -48.4837  -22.6994   75.8401 H   0  0  0  1  0  0  0  0  0  0  0  0
  -46.3920  -21.6040   75.1900 C   0  0  0  1  0  0  0  0  0  0  0  0
  -47.0635  -20.9775   75.7583 H   0  0  0  1  0  0  0  0  0  0  0  0
  -45.1510  -21.0990   74.7710 C   0  0  0  1  0  0  0  0  0  0  0  0
  -44.8607  -20.0922   75.0329 H   0  0  0  1  0  0  0  0  0  0  0  0
  -44.2390  -19.1780   71.9410 O   0  0  0  1  0  0  0  0  0  0  0  0
  -44.8310  -19.3810   69.2410 N   0  0  0  1  0  0  0  0  0  0  0  0
  -45.3418  -18.7187   69.8071 H   0  0  0  1  0  0  0  0  0  0  0  0
  -44.6870  -19.1000   67.8890 C   0  0  0  1  0  0  0  0  0  0  0  0
  -44.0790  -19.8190   67.1090 O   0  0  0  1  0  0  0  0  0  0  0  0
  -45.4070  -17.8340   67.4640 C   0  0  0  1  0  0  0  0  0  0  0  0
  -45.5191  -17.1446   68.3008 H   0  0  0  1  0  0  0  0  0  0  0  0
  -46.7920  -18.2790   66.9880 C   0  0  0  1  0  0  0  0  0  0  0  0
  -47.9390  -17.9030   67.6910 C   0  0  0  1  0  0  0  0  0  0  0  0
  -47.8686  -17.2440   68.5437 H   0  0  0  1  0  0  0  0  0  0  0  0
  -49.1880  -18.3970   67.2700 C   0  0  0  1  0  0  0  0  0  0  0  0
  -50.0790  -18.1102   67.8088 H   0  0  0  1  0  0  0  0  0  0  0  0
  -46.9160  -19.1540   65.8530 C   0  0  0  1  0  0  0  0  0  0  0  0
  -46.0285  -19.4383   65.3071 H   0  0  0  1  0  0  0  0  0  0  0  0
  -48.1600  -19.6460   65.4390 C   0  0  0  1  0  0  0  0  0  0  0  0
  -48.2363  -20.3059   64.5875 H   0  0  0  1  0  0  0  0  0  0  0  0
  -49.3010  -19.2650   66.1510 C   0  0  0  1  0  0  0  0  0  0  0  0
  -50.2712  -19.6315   65.8496 H   0  0  0  1  0  0  0  0  0  0  0  0
  -44.6090  -16.9290   66.5050 C   0  0  0  1  0  0  0  0  0  0  0  0
  -43.2450  -16.6910   66.7460 C   0  0  0  1  0  0  0  0  0  0  0  0
  -42.7509  -17.1929   67.5647 H   0  0  0  1  0  0  0  0  0  0  0  0
  -42.5140  -15.8010   65.9270 C   0  0  0  1  0  0  0  0  0  0  0  0
  -41.4684  -15.6253   66.1325 H   0  0  0  1  0  0  0  0  0  0  0  0
  -43.1280  -15.1420   64.8500 C   0  0  0  1  0  0  0  0  0  0  0  0
  -42.5627  -14.4605   64.2316 H   0  0  0  1  0  0  0  0  0  0  0  0
  -44.4780  -15.3790   64.5890 C   0  0  0  1  0  0  0  0  0  0  0  0
  -44.9601  -14.8861   63.7577 H   0  0  0  1  0  0  0  0  0  0  0  0
  -45.2150  -16.2600   65.4070 C   0  0  0  1  0  0  0  0  0  0  0  0
  -46.2603  -16.4297   65.1951 H   0  0  0  1  0  0  0  0  0  0  0  0
  -56.6203  -16.6121   78.0665 O   0  0  0  1  0  0  0  0  0  0  0  0
  1  2  1  0  0  0  0
  1  3  1  0  0  0  0
  1  4  1  0  0  0  0
  1 14  1  0  0  0  0
  4  5  1  0  0  0  0
  4  6  1  0  0  0  0
  6  7  1  0  0  0  0
  6 92  2  0  0  0  0
  7  8  1  0  0  0  0
  7  9  1  0  0  0  0
  7 10  1  0  0  0  0
 10 11  1  0  0  0  0
 10 12  1  0  0  0  0
 10 13  1  0  0  0  0
 14 15  1  0  0  0  0
 14 16  1  0  0  0  0
 14 17  1  0  0  0  0
 17 18  1  0  0  0  0
 17 19  1  0  0  0  0
 17 20  1  0  0  0  0
 20 21  1  0  0  0  0
 20 22  1  0  0  0  0
 20 23  1  0  0  0  0
 23 24  1  0  0  0  0
 23 25  1  0  0  0  0
 25 26  2  0  0  0  0
 25 27  1  0  0  0  0
 27 28  1  0  0  0  0
 27 29  1  0  0  0  0
 29 30  1  0  0  0  0
 29 33  2  0  0  0  0
 30 31  1  0  0  0  0
 30 32  1  0  0  0  0
 33 34  1  0  0  0  0
 34 35  1  0  0  0  0
 34 36  1  0  0  0  0
 34 37  1  0  0  0  0
 37 38  1  0  0  0  0
 37 39  1  0  0  0  0
 37 40  1  0  0  0  0
 40 41  1  0  0  0  0
 40 42  1  0  0  0  0
 40 43  1  0  0  0  0
 43 44  1  0  0  0  0
 43 45  1  0  0  0  0
 43 64  1  0  0  0  0
 45 46  1  0  0  0  0
 45 63  2  0  0  0  0
 46 47  1  0  0  0  0
 46 48  1  0  0  0  0
 48 49  1  0  0  0  0
 48 50  1  0  0  0  0
 48 51  1  0  0  0  0
 51 52  1  0  0  0  0
 51 61  2  0  0  0  0
 52 53  1  0  0  0  0
 52 54  2  0  0  0  0
 54 55  1  0  0  0  0
 54 56  1  0  0  0  0
 56 57  1  0  0  0  0
 56 59  2  0  0  0  0
 57 58  1  0  0  0  0
 59 60  1  0  0  0  0
 59 61  1  0  0  0  0
 61 62  1  0  0  0  0
 64 65  1  0  0  0  0
 64 66  1  0  0  0  0
 66 67  2  0  0  0  0
 66 68  1  0  0  0  0
 68 69  1  0  0  0  0
 68 70  1  0  0  0  0
 68 81  1  0  0  0  0
 70 71  2  0  0  0  0
 70 75  1  0  0  0  0
 71 72  1  0  0  0  0
 71 73  1  0  0  0  0
 73 74  1  0  0  0  0
 73 79  2  0  0  0  0
 75 76  1  0  0  0  0
 75 77  2  0  0  0  0
 77 78  1  0  0  0  0
 77 79  1  0  0  0  0
 79 80  1  0  0  0  0
 81 82  1  0  0  0  0
 81 90  2  0  0  0  0
 82 83  1  0  0  0  0
 82 84  2  0  0  0  0
 84 85  1  0  0  0  0
 84 86  1  0  0  0  0
 86 87  1  0  0  0  0
 86 88  2  0  0  0  0
 88 89  1  0  0  0  0
 88 90  1  0  0  0  0
 90 91  1  0  0  0  0
M  END
> <ConfScore>
-0.687935 

> <SampleByParts>
10 7 6 92 4 1 14 17 20 23 25 26 27 29 30 33

$$$$
NPY1_MK299_12302016.pdb.B
  MOE2014           3D

 92 94  0  0  0  0  0  0  0  0999 V2000
  -54.8247  -16.7068   75.7849 C   0  0  0  1  0  0  0  0  0  0  0  0
  -54.7945  -17.6226   76.3822 H   0  0  0  1  0  0  0  0  0  0  0  0
  -54.0185  -16.0503   76.1286 H   0  0  0  1  0  0  0  0  0  0  0  0
  -56.0769  -16.0070   76.0265 N   0  0  0  1  0  0  0  0  0  0  0  0
  -56.4502  -15.4404   75.2742 H   0  0  0  1  0  0  0  0  0  0  0  0
  -56.8536  -15.9960   77.1534 C   0  0  0  1  0  0  0  0  0  0  0  0
  -58.0978  -15.1291   77.1346 C   0  0  0  1  0  0  0  0  0  0  0  0
  -58.8569  -15.5950   77.7722 H   0  0  0  1  0  0  0  0  0  0  0  0
  -58.4848  -15.0817   76.1118 H   0  0  0  1  0  0  0  0  0  0  0  0
  -57.8294  -13.7192   77.6297 C   0  0  0  1  0  0  0  0  0  0  0  0
  -58.7438  -13.1193   77.5898 H   0  0  0  1  0  0  0  0  0  0  0  0
  -57.0704  -13.2284   77.0139 H   0  0  0  1  0  0  0  0  0  0  0  0
  -57.4693  -13.7265   78.6636 H   0  0  0  1  0  0  0  0  0  0  0  0
  -54.6600  -17.0172   74.3025 C   0  0  0  1  0  0  0  0  0  0  0  0
  -55.5732  -17.5047   73.9444 H   0  0  0  1  0  0  0  0  0  0  0  0
  -54.5718  -16.0818   73.7353 H   0  0  0  1  0  0  0  0  0  0  0  0
  -53.4386  -17.9042   74.0209 C   0  0  0  1  0  0  0  0  0  0  0  0
  -52.5337  -17.4025   74.3636 H   0  0  0  1  0  0  0  0  0  0  0  0
  -53.5546  -18.8482   74.5535 H   0  0  0  1  0  0  0  0  0  0  0  0
  -53.3125  -18.1934   72.4962 C   0  0  0  1  0  0  0  0  0  0  0  0
  -53.2156  -17.2531   71.9535 H   0  0  0  1  0  0  0  0  0  0  0  0
  -54.2006  -18.7225   72.1507 H   0  0  0  1  0  0  0  0  0  0  0  0
  -52.1280  -19.0191   72.2603 N   0  0  0  1  0  0  0  0  0  0  0  0
  -51.5873  -19.2722   73.0749 H   0  0  0  1  0  0  0  0  0  0  0  0
  -51.6594  -19.4991   71.0244 C   0  0  0  1  0  0  0  0  0  0  0  0
  -52.2504  -19.1989   69.9736 O   0  0  0  1  0  0  0  0  0  0  0  0
  -50.4600  -20.2550   71.1740 N   0  0  0  1  0  0  0  0  0  0  0  0
  -50.1228  -20.3188   72.1239 H   0  0  0  1  0  0  0  0  0  0  0  0
  -49.6900  -20.9060   70.2590 C   0  0  0  1  0  0  0  0  0  0  0  0
  -50.2570  -20.8250   69.0000 N   0  0  0  1  0  0  0  0  0  0  0  0
  -49.8842  -21.3783   68.2417 H   0  0  0  1  0  0  0  0  0  0  0  0
  -51.0438  -20.2125   68.8389 H   0  0  0  1  0  0  0  0  0  0  0  0
  -48.6290  -21.7900   70.2920 N   0  0  0  1  0  0  0  0  0  0  0  0
  -47.7070  -22.1200   71.3230 C   0  0  0  1  0  0  0  0  0  0  0  0
  -48.1435  -21.9395   72.3054 H   0  0  0  1  0  0  0  0  0  0  0  0
  -47.3992  -23.1630   71.2482 H   0  0  0  1  0  0  0  0  0  0  0  0
  -46.5220  -21.1840   71.0740 C   0  0  0  1  0  0  0  0  0  0  0  0
  -46.9258  -20.2178   70.7716 H   0  0  0  1  0  0  0  0  0  0  0  0
  -45.9869  -21.0750   72.0173 H   0  0  0  1  0  0  0  0  0  0  0  0
  -45.4860  -21.6160   69.9960 C   0  0  0  1  0  0  0  0  0  0  0  0
  -45.9831  -21.6765   69.0278 H   0  0  0  1  0  0  0  0  0  0  0  0
  -45.0840  -22.5942   70.2597 H   0  0  0  1  0  0  0  0  0  0  0  0
  -44.2930  -20.5720   69.9030 C   0  0  0  1  0  0  0  0  0  0  0  0
  -43.4175  -20.9189   69.3542 H   0  0  0  1  0  0  0  0  0  0  0  0
  -43.9430  -20.2610   71.3950 C   0  0  0  1  0  0  0  0  0  0  0  0
  -43.2680  -21.2970   72.0370 N   0  0  0  1  0  0  0  0  0  0  0  0
  -42.9631  -22.0791   71.4753 H   0  0  0  1  0  0  0  0  0  0  0  0
  -42.9760  -21.3290   73.4430 C   0  0  0  1  0  0  0  0  0  0  0  0
  -42.1220  -21.9707   73.6596 H   0  0  0  1  0  0  0  0  0  0  0  0
  -42.7882  -20.3295   73.8353 H   0  0  0  1  0  0  0  0  0  0  0  0
  -44.2750  -21.9160   74.0000 C   0  0  0  1  0  0  0  0  0  0  0  0
  -44.6710  -23.2570   73.6750 C   0  0  0  1  0  0  0  0  0  0  0  0
  -44.0095  -23.8778   73.0890 H   0  0  0  1  0  0  0  0  0  0  0  0
  -45.9140  -23.7810   74.1090 C   0  0  0  1  0  0  0  0  0  0  0  0
  -46.2001  -24.7938   73.8667 H   0  0  0  1  0  0  0  0  0  0  0  0
  -46.7720  -22.9500   74.8660 C   0  0  0  1  0  0  0  0  0  0  0  0
  -48.0010  -23.3600   75.3380 O   0  0  0  1  0  0  0  0  0  0  0  0
  -48.4837  -22.6994   75.8401 H   0  0  0  1  0  0  0  0  0  0  0  0
  -46.3920  -21.6040   75.1900 C   0  0  0  1  0  0  0  0  0  0  0  0
  -47.0635  -20.9775   75.7583 H   0  0  0  1  0  0  0  0  0  0  0  0
  -45.1510  -21.0990   74.7710 C   0  0  0  1  0  0  0  0  0  0  0  0
  -44.8607  -20.0922   75.0329 H   0  0  0  1  0  0  0  0  0  0  0  0
  -44.2390  -19.1780   71.9410 O   0  0  0  1  0  0  0  0  0  0  0  0
  -44.8310  -19.3810   69.2410 N   0  0  0  1  0  0  0  0  0  0  0  0
  -45.3418  -18.7187   69.8071 H   0  0  0  1  0  0  0  0  0  0  0  0
  -44.6870  -19.1000   67.8890 C   0  0  0  1  0  0  0  0  0  0  0  0
  -44.0790  -19.8190   67.1090 O   0  0  0  1  0  0  0  0  0  0  0  0
  -45.4070  -17.8340   67.4640 C   0  0  0  1  0  0  0  0  0  0  0  0
  -45.5191  -17.1446   68.3008 H   0  0  0  1  0  0  0  0  0  0  0  0
  -46.7920  -18.2790   66.9880 C   0  0  0  1  0  0  0  0  0  0  0  0
  -47.9390  -17.9030   67.6910 C   0  0  0  1  0  0  0  0  0  0  0  0
  -47.8686  -17.2440   68.5437 H   0  0  0  1  0  0  0  0  0  0  0  0
  -49.1880  -18.3970   67.2700 C   0  0  0  1  0  0  0  0  0  0  0  0
  -50.0790  -18.1102   67.8088 H   0  0  0  1  0  0  0  0  0  0  0  0
  -46.9160  -19.1540   65.8530 C   0  0  0  1  0  0  0  0  0  0  0  0
  -46.0285  -19.4383   65.3071 H   0  0  0  1  0  0  0  0  0  0  0  0
  -48.1600  -19.6460   65.4390 C   0  0  0  1  0  0  0  0  0  0  0  0
  -48.2363  -20.3059   64.5875 H   0  0  0  1  0  0  0  0  0  0  0  0
  -49.3010  -19.2650   66.1510 C   0  0  0  1  0  0  0  0  0  0  0  0
  -50.2712  -19.6315   65.8496 H   0  0  0  1  0  0  0  0  0  0  0  0
  -44.6090  -16.9290   66.5050 C   0  0  0  1  0  0  0  0  0  0  0  0
  -43.2450  -16.6910   66.7460 C   0  0  0  1  0  0  0  0  0  0  0  0
  -42.7509  -17.1929   67.5647 H   0  0  0  1  0  0  0  0  0  0  0  0
  -42.5140  -15.8010   65.9270 C   0  0  0  1  0  0  0  0  0  0  0  0
  -41.4684  -15.6253   66.1325 H   0  0  0  1  0  0  0  0  0  0  0  0
  -43.1280  -15.1420   64.8500 C   0  0  0  1  0  0  0  0  0  0  0  0
  -42.5627  -14.4605   64.2316 H   0  0  0  1  0  0  0  0  0  0  0  0
  -44.4780  -15.3790   64.5890 C   0  0  0  1  0  0  0  0  0  0  0  0
  -44.9601  -14.8861   63.7577 H   0  0  0  1  0  0  0  0  0  0  0  0
  -45.2150  -16.2600   65.4070 C   0  0  0  1  0  0  0  0  0  0  0  0
  -46.2603  -16.4297   65.1951 H   0  0  0  1  0  0  0  0  0  0  0  0
  -56.5239  -16.6872   78.1162 O   0  0  0  1  0  0  0  0  0  0  0  0
  1  2  1  0  0  0  0
  1  3  1  0  0  0  0
  1  4  1  0  0  0  0
  1 14  1  0  0  0  0
  4  5  1  0  0  0  0
  4  6  1  0  0  0  0
  6  7  1  0  0  0  0
  6 92  2  0  0  0  0
  7  8  1  0  0  0  0
  7  9  1  0  0  0  0
  7 10  1  0  0  0  0
 10 11  1  0  0  0  0
 10 12  1  0  0  0  0
 10 13  1  0  0  0  0
 14 15  1  0  0  0  0
 14 16  1  0  0  0  0
 14 17  1  0  0  0  0
 17 18  1  0  0  0  0
 17 19  1  0  0  0  0
 17 20  1  0  0  0  0
 20 21  1  0  0  0  0
 20 22  1  0  0  0  0
 20 23  1  0  0  0  0
 23 24  1  0  0  0  0
 23 25  1  0  0  0  0
 25 26  2  0  0  0  0
 25 27  1  0  0  0  0
 27 28  1  0  0  0  0
 27 29  1  0  0  0  0
 29 30  1  0  0  0  0
 29 33  2  0  0  0  0
 30 31  1  0  0  0  0
 30 32  1  0  0  0  0
 33 34  1  0  0  0  0
 34 35  1  0  0  0  0
 34 36  1  0  0  0  0
 34 37  1  0  0  0  0
 37 38  1  0  0  0  0
 37 39  1  0  0  0  0
 37 40  1  0  0  0  0
 40 41  1  0  0  0  0
 40 42  1  0  0  0  0
 40 43  1  0  0  0  0
 43 44  1  0  0  0  0
 43 45  1  0  0  0  0
 43 64  1  0  0  0  0
 45 46  1  0  0  0  0
 45 63  2  0  0  0  0
 46 47  1  0  0  0  0
 46 48  1  0  0  0  0
 48 49  1  0  0  0  0
 48 50  1  0  0  0  0
 48 51  1  0  0  0  0
 51 52  1  0  0  0  0
 51 61  2  0  0  0  0
 52 53  1  0  0  0  0
 52 54  2  0  0  0  0
 54 55  1  0  0  0  0
 54 56  1  0  0  0  0
 56 57  1  0  0  0  0
 56 59  2  0  0  0  0
 57 58  1  0  0  0  0
 59 60  1  0  0  0  0
 59 61  1  0  0  0  0
 61 62  1  0  0  0  0
 64 65  1  0  0  0  0
 64 66  1  0  0  0  0
 66 67  2  0  0  0  0
 66 68  1  0  0  0  0
 68 69  1  0  0  0  0
 68 70  1  0  0  0  0
 68 81  1  0  0  0  0
 70 71  2  0  0  0  0
 70 75  1  0  0  0  0
 71 72  1  0  0  0  0
 71 73  1  0  0  0  0
 73 74  1  0  0  0  0
 73 79  2  0  0  0  0
 75 76  1  0  0  0  0
 75 77  2  0  0  0  0
 77 78  1  0  0  0  0
 77 79  1  0  0  0  0
 79 80  1  0  0  0  0
 81 82  1  0  0  0  0
 81 90  2  0  0  0  0
 82 83  1  0  0  0  0
 82 84  2  0  0  0  0
 84 85  1  0  0  0  0
 84 86  1  0  0  0  0
 86 87  1  0  0  0  0
 86 88  2  0  0  0  0
 88 89  1  0  0  0  0
 88 90  1  0  0  0  0
 90 91  1  0  0  0  0
M  END
> <ConfScore>
-0.687935 

> <SampleByParts>
10 7 6 92 4 1 14 17 20 23 25 26 27 29 30 33

$$$$
NPY1_MK299_12302016.pdb.B
  MOE2014           3D

 92 94  0  0  0  0  0  0  0  0999 V2000
  -54.5838  -16.3177   75.6903 C   0  0  0  1  0  0  0  0  0  0  0  0
  -54.6967  -17.2034   76.3221 H   0  0  0  1  0  0  0  0  0  0  0  0
  -53.6878  -15.7795   76.0170 H   0  0  0  1  0  0  0  0  0  0  0  0
  -55.7148  -15.4257   75.8928 N   0  0  0  1  0  0  0  0  0  0  0  0
  -56.2658  -15.1752   75.0804 H   0  0  0  1  0  0  0  0  0  0  0  0
  -56.1629  -14.8530   77.0523 C   0  0  0  1  0  0  0  0  0  0  0  0
  -57.3674  -13.9363   76.9574 C   0  0  0  1  0  0  0  0  0  0  0  0
  -57.6280  -13.8114   75.9009 H   0  0  0  1  0  0  0  0  0  0  0  0
  -57.1040  -12.9566   77.3683 H   0  0  0  1  0  0  0  0  0  0  0  0
  -58.5709  -14.4812   77.7056 C   0  0  0  1  0  0  0  0  0  0  0  0
  -59.4153  -13.7896   77.6273 H   0  0  0  1  0  0  0  0  0  0  0  0
  -58.3396  -14.6211   78.7654 H   0  0  0  1  0  0  0  0  0  0  0  0
  -58.8821  -15.4492   77.2995 H   0  0  0  1  0  0  0  0  0  0  0  0
  -54.4626  -16.7071   74.2224 C   0  0  0  1  0  0  0  0  0  0  0  0
  -55.3999  -17.1786   73.9079 H   0  0  0  1  0  0  0  0  0  0  0  0
  -54.3542  -15.8048   73.6072 H   0  0  0  1  0  0  0  0  0  0  0  0
  -53.2794  -17.6503   73.9614 C   0  0  0  1  0  0  0  0  0  0  0  0
  -52.3485  -17.1585   74.2435 H   0  0  0  1  0  0  0  0  0  0  0  0
  -53.4075  -18.5544   74.5567 H   0  0  0  1  0  0  0  0  0  0  0  0
  -53.2120  -18.0393   72.4553 C   0  0  0  1  0  0  0  0  0  0  0  0
  -53.0855  -17.1405   71.8517 H   0  0  0  1  0  0  0  0  0  0  0  0
  -54.1344  -18.5435   72.1672 H   0  0  0  1  0  0  0  0  0  0  0  0
  -52.0762  -18.9364   72.2412 N   0  0  0  1  0  0  0  0  0  0  0  0
  -51.5156  -19.1531   73.0529 H   0  0  0  1  0  0  0  0  0  0  0  0
  -51.6792  -19.5304   71.0299 C   0  0  0  1  0  0  0  0  0  0  0  0
  -52.3410  -19.3411   69.9956 O   0  0  0  1  0  0  0  0  0  0  0  0
  -50.4600  -20.2550   71.1740 N   0  0  0  1  0  0  0  0  0  0  0  0
  -50.1058  -20.2919   72.1192 H   0  0  0  1  0  0  0  0  0  0  0  0
  -49.6900  -20.9060   70.2590 C   0  0  0  1  0  0  0  0  0  0  0  0
  -50.2570  -20.8250   69.0000 N   0  0  0  1  0  0  0  0  0  0  0  0
  -49.8842  -21.3783   68.2417 H   0  0  0  1  0  0  0  0  0  0  0  0
  -51.0438  -20.2125   68.8389 H   0  0  0  1  0  0  0  0  0  0  0  0
  -48.6290  -21.7900   70.2920 N   0  0  0  1  0  0  0  0  0  0  0  0
  -47.7070  -22.1200   71.3230 C   0  0  0  1  0  0  0  0  0  0  0  0
  -48.1435  -21.9395   72.3054 H   0  0  0  1  0  0  0  0  0  0  0  0
  -47.3992  -23.1630   71.2482 H   0  0  0  1  0  0  0  0  0  0  0  0
  -46.5220  -21.1840   71.0740 C   0  0  0  1  0  0  0  0  0  0  0  0
  -46.9258  -20.2178   70.7716 H   0  0  0  1  0  0  0  0  0  0  0  0
  -45.9869  -21.0750   72.0173 H   0  0  0  1  0  0  0  0  0  0  0  0
  -45.4860  -21.6160   69.9960 C   0  0  0  1  0  0  0  0  0  0  0  0
  -45.9831  -21.6765   69.0278 H   0  0  0  1  0  0  0  0  0  0  0  0
  -45.0840  -22.5942   70.2597 H   0  0  0  1  0  0  0  0  0  0  0  0
  -44.2930  -20.5720   69.9030 C   0  0  0  1  0  0  0  0  0  0  0  0
  -43.4175  -20.9189   69.3542 H   0  0  0  1  0  0  0  0  0  0  0  0
  -43.9430  -20.2610   71.3950 C   0  0  0  1  0  0  0  0  0  0  0  0
  -43.2680  -21.2970   72.0370 N   0  0  0  1  0  0  0  0  0  0  0  0
  -42.9631  -22.0791   71.4753 H   0  0  0  1  0  0  0  0  0  0  0  0
  -42.9760  -21.3290   73.4430 C   0  0  0  1  0  0  0  0  0  0  0  0
  -42.1220  -21.9707   73.6596 H   0  0  0  1  0  0  0  0  0  0  0  0
  -42.7882  -20.3295   73.8353 H   0  0  0  1  0  0  0  0  0  0  0  0
  -44.2750  -21.9160   74.0000 C   0  0  0  1  0  0  0  0  0  0  0  0
  -44.6710  -23.2570   73.6750 C   0  0  0  1  0  0  0  0  0  0  0  0
  -44.0095  -23.8778   73.0890 H   0  0  0  1  0  0  0  0  0  0  0  0
  -45.9140  -23.7810   74.1090 C   0  0  0  1  0  0  0  0  0  0  0  0
  -46.2001  -24.7938   73.8667 H   0  0  0  1  0  0  0  0  0  0  0  0
  -46.7720  -22.9500   74.8660 C   0  0  0  1  0  0  0  0  0  0  0  0
  -48.0010  -23.3600   75.3380 O   0  0  0  1  0  0  0  0  0  0  0  0
  -48.4837  -22.6994   75.8401 H   0  0  0  1  0  0  0  0  0  0  0  0
  -46.3920  -21.6040   75.1900 C   0  0  0  1  0  0  0  0  0  0  0  0
  -47.0635  -20.9775   75.7583 H   0  0  0  1  0  0  0  0  0  0  0  0
  -45.1510  -21.0990   74.7710 C   0  0  0  1  0  0  0  0  0  0  0  0
  -44.8607  -20.0922   75.0329 H   0  0  0  1  0  0  0  0  0  0  0  0
  -44.2390  -19.1780   71.9410 O   0  0  0  1  0  0  0  0  0  0  0  0
  -44.8310  -19.3810   69.2410 N   0  0  0  1  0  0  0  0  0  0  0  0
  -45.3418  -18.7187   69.8071 H   0  0  0  1  0  0  0  0  0  0  0  0
  -44.6870  -19.1000   67.8890 C   0  0  0  1  0  0  0  0  0  0  0  0
  -44.0790  -19.8190   67.1090 O   0  0  0  1  0  0  0  0  0  0  0  0
  -45.4070  -17.8340   67.4640 C   0  0  0  1  0  0  0  0  0  0  0  0
  -45.5191  -17.1446   68.3008 H   0  0  0  1  0  0  0  0  0  0  0  0
  -46.7920  -18.2790   66.9880 C   0  0  0  1  0  0  0  0  0  0  0  0
  -47.9390  -17.9030   67.6910 C   0  0  0  1  0  0  0  0  0  0  0  0
  -47.8686  -17.2440   68.5437 H   0  0  0  1  0  0  0  0  0  0  0  0
  -49.1880  -18.3970   67.2700 C   0  0  0  1  0  0  0  0  0  0  0  0
  -50.0790  -18.1102   67.8088 H   0  0  0  1  0  0  0  0  0  0  0  0
  -46.9160  -19.1540   65.8530 C   0  0  0  1  0  0  0  0  0  0  0  0
  -46.0285  -19.4383   65.3071 H   0  0  0  1  0  0  0  0  0  0  0  0
  -48.1600  -19.6460   65.4390 C   0  0  0  1  0  0  0  0  0  0  0  0
  -48.2363  -20.3059   64.5875 H   0  0  0  1  0  0  0  0  0  0  0  0
  -49.3010  -19.2650   66.1510 C   0  0  0  1  0  0  0  0  0  0  0  0
  -50.2712  -19.6315   65.8496 H   0  0  0  1  0  0  0  0  0  0  0  0
  -44.6090  -16.9290   66.5050 C   0  0  0  1  0  0  0  0  0  0  0  0
  -43.2450  -16.6910   66.7460 C   0  0  0  1  0  0  0  0  0  0  0  0
  -42.7509  -17.1929   67.5647 H   0  0  0  1  0  0  0  0  0  0  0  0
  -42.5140  -15.8010   65.9270 C   0  0  0  1  0  0  0  0  0  0  0  0
  -41.4684  -15.6253   66.1325 H   0  0  0  1  0  0  0  0  0  0  0  0
  -43.1280  -15.1420   64.8500 C   0  0  0  1  0  0  0  0  0  0  0  0
  -42.5627  -14.4605   64.2316 H   0  0  0  1  0  0  0  0  0  0  0  0
  -44.4780  -15.3790   64.5890 C   0  0  0  1  0  0  0  0  0  0  0  0
  -44.9601  -14.8861   63.7577 H   0  0  0  1  0  0  0  0  0  0  0  0
  -45.2150  -16.2600   65.4070 C   0  0  0  1  0  0  0  0  0  0  0  0
  -46.2603  -16.4297   65.1951 H   0  0  0  1  0  0  0  0  0  0  0  0
  -55.5882  -15.1094   78.1094 O   0  0  0  1  0  0  0  0  0  0  0  0
  1  2  1  0  0  0  0
  1  3  1  0  0  0  0
  1  4  1  0  0  0  0
  1 14  1  0  0  0  0
  4  5  1  0  0  0  0
  4  6  1  0  0  0  0
  6  7  1  0  0  0  0
  6 92  2  0  0  0  0
  7  8  1  0  0  0  0
  7  9  1  0  0  0  0
  7 10  1  0  0  0  0
 10 11  1  0  0  0  0
 10 12  1  0  0  0  0
 10 13  1  0  0  0  0
 14 15  1  0  0  0  0
 14 16  1  0  0  0  0
 14 17  1  0  0  0  0
 17 18  1  0  0  0  0
 17 19  1  0  0  0  0
 17 20  1  0  0  0  0
 20 21  1  0  0  0  0
 20 22  1  0  0  0  0
 20 23  1  0  0  0  0
 23 24  1  0  0  0  0
 23 25  1  0  0  0  0
 25 26  2  0  0  0  0
 25 27  1  0  0  0  0
 27 28  1  0  0  0  0
 27 29  1  0  0  0  0
 29 30  1  0  0  0  0
 29 33  2  0  0  0  0
 30 31  1  0  0  0  0
 30 32  1  0  0  0  0
 33 34  1  0  0  0  0
 34 35  1  0  0  0  0
 34 36  1  0  0  0  0
 34 37  1  0  0  0  0
 37 38  1  0  0  0  0
 37 39  1  0  0  0  0
 37 40  1  0  0  0  0
 40 41  1  0  0  0  0
 40 42  1  0  0  0  0
 40 43  1  0  0  0  0
 43 44  1  0  0  0  0
 43 45  1  0  0  0  0
 43 64  1  0  0  0  0
 45 46  1  0  0  0  0
 45 63  2  0  0  0  0
 46 47  1  0  0  0  0
 46 48  1  0  0  0  0
 48 49  1  0  0  0  0
 48 50  1  0  0  0  0
 48 51  1  0  0  0  0
 51 52  1  0  0  0  0
 51 61  2  0  0  0  0
 52 53  1  0  0  0  0
 52 54  2  0  0  0  0
 54 55  1  0  0  0  0
 54 56  1  0  0  0  0
 56 57  1  0  0  0  0
 56 59  2  0  0  0  0
 57 58  1  0  0  0  0
 59 60  1  0  0  0  0
 59 61  1  0  0  0  0
 61 62  1  0  0  0  0
 64 65  1  0  0  0  0
 64 66  1  0  0  0  0
 66 67  2  0  0  0  0
 66 68  1  0  0  0  0
 68 69  1  0  0  0  0
 68 70  1  0  0  0  0
 68 81  1  0  0  0  0
 70 71  2  0  0  0  0
 70 75  1  0  0  0  0
 71 72  1  0  0  0  0
 71 73  1  0  0  0  0
 73 74  1  0  0  0  0
 73 79  2  0  0  0  0
 75 76  1  0  0  0  0
 75 77  2  0  0  0  0
 77 78  1  0  0  0  0
 77 79  1  0  0  0  0
 79 80  1  0  0  0  0
 81 82  1  0  0  0  0
 81 90  2  0  0  0  0
 82 83  1  0  0  0  0
 82 84  2  0  0  0  0
 84 85  1  0  0  0  0
 84 86  1  0  0  0  0
 86 87  1  0  0  0  0
 86 88  2  0  0  0  0
 88 89  1  0  0  0  0
 88 90  1  0  0  0  0
 90 91  1  0  0  0  0
M  END
> <ConfScore>
-0.686435 

> <SampleByParts>
10 7 6 92 4 1 14 17 20 23 25 26 27 29 30 33

$$$$
NPY1_MK299_12302016.pdb.B
  MOE2014           3D

 92 94  0  0  0  0  0  0  0  0999 V2000
  -54.8106  -16.6867   75.7825 C   0  0  0  1  0  0  0  0  0  0  0  0
  -54.9216  -17.6110   76.3567 H   0  0  0  1  0  0  0  0  0  0  0  0
  -53.9374  -16.1501   76.1682 H   0  0  0  1  0  0  0  0  0  0  0  0
  -55.9675  -15.8328   76.0027 N   0  0  0  1  0  0  0  0  0  0  0  0
  -56.4908  -15.5330   75.1886 H   0  0  0  1  0  0  0  0  0  0  0  0
  -56.4736  -15.3555   77.1814 C   0  0  0  1  0  0  0  0  0  0  0  0
  -57.7540  -14.5457   77.1137 C   0  0  0  1  0  0  0  0  0  0  0  0
  -58.6028  -15.2230   77.2563 H   0  0  0  1  0  0  0  0  0  0  0  0
  -57.8364  -14.0897   76.1220 H   0  0  0  1  0  0  0  0  0  0  0  0
  -57.8059  -13.4542   78.1677 C   0  0  0  1  0  0  0  0  0  0  0  0
  -58.7351  -12.8827   78.0811 H   0  0  0  1  0  0  0  0  0  0  0  0
  -56.9663  -12.7627   78.0536 H   0  0  0  1  0  0  0  0  0  0  0  0
  -57.7570  -13.8777   79.1762 H   0  0  0  1  0  0  0  0  0  0  0  0
  -54.6371  -16.9844   74.2985 C   0  0  0  1  0  0  0  0  0  0  0  0
  -55.5535  -17.4561   73.9277 H   0  0  0  1  0  0  0  0  0  0  0  0
  -54.5315  -16.0447   73.7416 H   0  0  0  1  0  0  0  0  0  0  0  0
  -53.4252  -17.8848   74.0185 C   0  0  0  1  0  0  0  0  0  0  0  0
  -52.5167  -17.3987   74.3740 H   0  0  0  1  0  0  0  0  0  0  0  0
  -53.5583  -18.8324   74.5404 H   0  0  0  1  0  0  0  0  0  0  0  0
  -53.2896  -18.1604   72.4921 C   0  0  0  1  0  0  0  0  0  0  0  0
  -53.1578  -17.2174   71.9615 H   0  0  0  1  0  0  0  0  0  0  0  0
  -54.1892  -18.6582   72.1301 H   0  0  0  1  0  0  0  0  0  0  0  0
  -52.1280  -19.0191   72.2603 N   0  0  0  1  0  0  0  0  0  0  0  0
  -51.6050  -19.2978   73.0781 H   0  0  0  1  0  0  0  0  0  0  0  0
  -51.6594  -19.4991   71.0244 C   0  0  0  1  0  0  0  0  0  0  0  0
  -52.2504  -19.1989   69.9736 O   0  0  0  1  0  0  0  0  0  0  0  0
  -50.4600  -20.2550   71.1740 N   0  0  0  1  0  0  0  0  0  0  0  0
  -50.1228  -20.3188   72.1239 H   0  0  0  1  0  0  0  0  0  0  0  0
  -49.6900  -20.9060   70.2590 C   0  0  0  1  0  0  0  0  0  0  0  0
  -50.2570  -20.8250   69.0000 N   0  0  0  1  0  0  0  0  0  0  0  0
  -49.8842  -21.3783   68.2417 H   0  0  0  1  0  0  0  0  0  0  0  0
  -51.0438  -20.2125   68.8389 H   0  0  0  1  0  0  0  0  0  0  0  0
  -48.6290  -21.7900   70.2920 N   0  0  0  1  0  0  0  0  0  0  0  0
  -47.7070  -22.1200   71.3230 C   0  0  0  1  0  0  0  0  0  0  0  0
  -48.1435  -21.9395   72.3054 H   0  0  0  1  0  0  0  0  0  0  0  0
  -47.3992  -23.1630   71.2482 H   0  0  0  1  0  0  0  0  0  0  0  0
  -46.5220  -21.1840   71.0740 C   0  0  0  1  0  0  0  0  0  0  0  0
  -46.9258  -20.2178   70.7716 H   0  0  0  1  0  0  0  0  0  0  0  0
  -45.9869  -21.0750   72.0173 H   0  0  0  1  0  0  0  0  0  0  0  0
  -45.4860  -21.6160   69.9960 C   0  0  0  1  0  0  0  0  0  0  0  0
  -45.9831  -21.6765   69.0278 H   0  0  0  1  0  0  0  0  0  0  0  0
  -45.0840  -22.5942   70.2597 H   0  0  0  1  0  0  0  0  0  0  0  0
  -44.2930  -20.5720   69.9030 C   0  0  0  1  0  0  0  0  0  0  0  0
  -43.4175  -20.9189   69.3542 H   0  0  0  1  0  0  0  0  0  0  0  0
  -43.9430  -20.2610   71.3950 C   0  0  0  1  0  0  0  0  0  0  0  0
  -43.2680  -21.2970   72.0370 N   0  0  0  1  0  0  0  0  0  0  0  0
  -42.9631  -22.0791   71.4753 H   0  0  0  1  0  0  0  0  0  0  0  0
  -42.9760  -21.3290   73.4430 C   0  0  0  1  0  0  0  0  0  0  0  0
  -42.1220  -21.9707   73.6596 H   0  0  0  1  0  0  0  0  0  0  0  0
  -42.7882  -20.3295   73.8353 H   0  0  0  1  0  0  0  0  0  0  0  0
  -44.2750  -21.9160   74.0000 C   0  0  0  1  0  0  0  0  0  0  0  0
  -44.6710  -23.2570   73.6750 C   0  0  0  1  0  0  0  0  0  0  0  0
  -44.0095  -23.8778   73.0890 H   0  0  0  1  0  0  0  0  0  0  0  0
  -45.9140  -23.7810   74.1090 C   0  0  0  1  0  0  0  0  0  0  0  0
  -46.2001  -24.7938   73.8667 H   0  0  0  1  0  0  0  0  0  0  0  0
  -46.7720  -22.9500   74.8660 C   0  0  0  1  0  0  0  0  0  0  0  0
  -48.0010  -23.3600   75.3380 O   0  0  0  1  0  0  0  0  0  0  0  0
  -48.4837  -22.6994   75.8401 H   0  0  0  1  0  0  0  0  0  0  0  0
  -46.3920  -21.6040   75.1900 C   0  0  0  1  0  0  0  0  0  0  0  0
  -47.0635  -20.9775   75.7583 H   0  0  0  1  0  0  0  0  0  0  0  0
  -45.1510  -21.0990   74.7710 C   0  0  0  1  0  0  0  0  0  0  0  0
  -44.8607  -20.0922   75.0329 H   0  0  0  1  0  0  0  0  0  0  0  0
  -44.2390  -19.1780   71.9410 O   0  0  0  1  0  0  0  0  0  0  0  0
  -44.8310  -19.3810   69.2410 N   0  0  0  1  0  0  0  0  0  0  0  0
  -45.3418  -18.7187   69.8071 H   0  0  0  1  0  0  0  0  0  0  0  0
  -44.6870  -19.1000   67.8890 C   0  0  0  1  0  0  0  0  0  0  0  0
  -44.0790  -19.8190   67.1090 O   0  0  0  1  0  0  0  0  0  0  0  0
  -45.4070  -17.8340   67.4640 C   0  0  0  1  0  0  0  0  0  0  0  0
  -45.5191  -17.1446   68.3008 H   0  0  0  1  0  0  0  0  0  0  0  0
  -46.7920  -18.2790   66.9880 C   0  0  0  1  0  0  0  0  0  0  0  0
  -47.9390  -17.9030   67.6910 C   0  0  0  1  0  0  0  0  0  0  0  0
  -47.8686  -17.2440   68.5437 H   0  0  0  1  0  0  0  0  0  0  0  0
  -49.1880  -18.3970   67.2700 C   0  0  0  1  0  0  0  0  0  0  0  0
  -50.0790  -18.1102   67.8088 H   0  0  0  1  0  0  0  0  0  0  0  0
  -46.9160  -19.1540   65.8530 C   0  0  0  1  0  0  0  0  0  0  0  0
  -46.0285  -19.4383   65.3071 H   0  0  0  1  0  0  0  0  0  0  0  0
  -48.1600  -19.6460   65.4390 C   0  0  0  1  0  0  0  0  0  0  0  0
  -48.2363  -20.3059   64.5875 H   0  0  0  1  0  0  0  0  0  0  0  0
  -49.3010  -19.2650   66.1510 C   0  0  0  1  0  0  0  0  0  0  0  0
  -50.2712  -19.6315   65.8496 H   0  0  0  1  0  0  0  0  0  0  0  0
  -44.6090  -16.9290   66.5050 C   0  0  0  1  0  0  0  0  0  0  0  0
  -43.2450  -16.6910   66.7460 C   0  0  0  1  0  0  0  0  0  0  0  0
  -42.7509  -17.1929   67.5647 H   0  0  0  1  0  0  0  0  0  0  0  0
  -42.5140  -15.8010   65.9270 C   0  0  0  1  0  0  0  0  0  0  0  0
  -41.4684  -15.6253   66.1325 H   0  0  0  1  0  0  0  0  0  0  0  0
  -43.1280  -15.1420   64.8500 C   0  0  0  1  0  0  0  0  0  0  0  0
  -42.5627  -14.4605   64.2316 H   0  0  0  1  0  0  0  0  0  0  0  0
  -44.4780  -15.3790   64.5890 C   0  0  0  1  0  0  0  0  0  0  0  0
  -44.9601  -14.8861   63.7577 H   0  0  0  1  0  0  0  0  0  0  0  0
  -45.2150  -16.2600   65.4070 C   0  0  0  1  0  0  0  0  0  0  0  0
  -46.2603  -16.4297   65.1951 H   0  0  0  1  0  0  0  0  0  0  0  0
  -55.8864  -15.6081   78.2325 O   0  0  0  1  0  0  0  0  0  0  0  0
  1  2  1  0  0  0  0
  1  3  1  0  0  0  0
  1  4  1  0  0  0  0
  1 14  1  0  0  0  0
  4  5  1  0  0  0  0
  4  6  1  0  0  0  0
  6  7  1  0  0  0  0
  6 92  2  0  0  0  0
  7  8  1  0  0  0  0
  7  9  1  0  0  0  0
  7 10  1  0  0  0  0
 10 11  1  0  0  0  0
 10 12  1  0  0  0  0
 10 13  1  0  0  0  0
 14 15  1  0  0  0  0
 14 16  1  0  0  0  0
 14 17  1  0  0  0  0
 17 18  1  0  0  0  0
 17 19  1  0  0  0  0
 17 20  1  0  0  0  0
 20 21  1  0  0  0  0
 20 22  1  0  0  0  0
 20 23  1  0  0  0  0
 23 24  1  0  0  0  0
 23 25  1  0  0  0  0
 25 26  2  0  0  0  0
 25 27  1  0  0  0  0
 27 28  1  0  0  0  0
 27 29  1  0  0  0  0
 29 30  1  0  0  0  0
 29 33  2  0  0  0  0
 30 31  1  0  0  0  0
 30 32  1  0  0  0  0
 33 34  1  0  0  0  0
 34 35  1  0  0  0  0
 34 36  1  0  0  0  0
 34 37  1  0  0  0  0
 37 38  1  0  0  0  0
 37 39  1  0  0  0  0
 37 40  1  0  0  0  0
 40 41  1  0  0  0  0
 40 42  1  0  0  0  0
 40 43  1  0  0  0  0
 43 44  1  0  0  0  0
 43 45  1  0  0  0  0
 43 64  1  0  0  0  0
 45 46  1  0  0  0  0
 45 63  2  0  0  0  0
 46 47  1  0  0  0  0
 46 48  1  0  0  0  0
 48 49  1  0  0  0  0
 48 50  1  0  0  0  0
 48 51  1  0  0  0  0
 51 52  1  0  0  0  0
 51 61  2  0  0  0  0
 52 53  1  0  0  0  0
 52 54  2  0  0  0  0
 54 55  1  0  0  0  0
 54 56  1  0  0  0  0
 56 57  1  0  0  0  0
 56 59  2  0  0  0  0
 57 58  1  0  0  0  0
 59 60  1  0  0  0  0
 59 61  1  0  0  0  0
 61 62  1  0  0  0  0
 64 65  1  0  0  0  0
 64 66  1  0  0  0  0
 66 67  2  0  0  0  0
 66 68  1  0  0  0  0
 68 69  1  0  0  0  0
 68 70  1  0  0  0  0
 68 81  1  0  0  0  0
 70 71  2  0  0  0  0
 70 75  1  0  0  0  0
 71 72  1  0  0  0  0
 71 73  1  0  0  0  0
 73 74  1  0  0  0  0
 73 79  2  0  0  0  0
 75 76  1  0  0  0  0
 75 77  2  0  0  0  0
 77 78  1  0  0  0  0
 77 79  1  0  0  0  0
 79 80  1  0  0  0  0
 81 82  1  0  0  0  0
 81 90  2  0  0  0  0
 82 83  1  0  0  0  0
 82 84  2  0  0  0  0
 84 85  1  0  0  0  0
 84 86  1  0  0  0  0
 86 87  1  0  0  0  0
 86 88  2  0  0  0  0
 88 89  1  0  0  0  0
 88 90  1  0  0  0  0
 90 91  1  0  0  0  0
M  END
> <ConfScore>
-0.68261 

> <SampleByParts>
10 7 6 92 4 1 14 17 20 23 25 26 27 29 30 33

$$$$
NPY1_MK299_12302016.pdb.B
  MOE2014           3D

 92 94  0  0  0  0  0  0  0  0999 V2000
  -54.3943  -17.0062   76.3573 C   0  0  0  1  0  0  0  0  0  0  0  0
  -54.4036  -16.0978   75.7481 H   0  0  0  1  0  0  0  0  0  0  0  0
  -55.2547  -17.6185   76.0673 H   0  0  0  1  0  0  0  0  0  0  0  0
  -54.5720  -16.6571   77.7582 N   0  0  0  1  0  0  0  0  0  0  0  0
  -53.8630  -16.9668   78.4122 H   0  0  0  1  0  0  0  0  0  0  0  0
  -55.5854  -15.9510   78.3476 C   0  0  0  1  0  0  0  0  0  0  0  0
  -55.5230  -15.7648   79.8514 C   0  0  0  1  0  0  0  0  0  0  0  0
  -55.4972  -14.6916   80.0691 H   0  0  0  1  0  0  0  0  0  0  0  0
  -54.6013  -16.2181   80.2297 H   0  0  0  1  0  0  0  0  0  0  0  0
  -56.7109  -16.3882   80.5624 C   0  0  0  1  0  0  0  0  0  0  0  0
  -56.6263  -16.2469   81.6443 H   0  0  0  1  0  0  0  0  0  0  0  0
  -56.7660  -17.4616   80.3603 H   0  0  0  1  0  0  0  0  0  0  0  0
  -57.6508  -15.9355   80.2303 H   0  0  0  1  0  0  0  0  0  0  0  0
  -53.0992  -17.7832   76.1572 C   0  0  0  1  0  0  0  0  0  0  0  0
  -52.2660  -17.1727   76.5218 H   0  0  0  1  0  0  0  0  0  0  0  0
  -53.1093  -18.6873   76.7794 H   0  0  0  1  0  0  0  0  0  0  0  0
  -52.8698  -18.1737   74.6900 C   0  0  0  1  0  0  0  0  0  0  0  0
  -53.6943  -18.7961   74.3424 H   0  0  0  1  0  0  0  0  0  0  0  0
  -52.8180  -17.2683   74.0853 H   0  0  0  1  0  0  0  0  0  0  0  0
  -51.5372  -18.9640   74.5362 C   0  0  0  1  0  0  0  0  0  0  0  0
  -51.5793  -19.8709   75.1395 H   0  0  0  1  0  0  0  0  0  0  0  0
  -50.7050  -18.3442   74.8699 H   0  0  0  1  0  0  0  0  0  0  0  0
  -51.3493  -19.3199   73.1296 N   0  0  0  1  0  0  0  0  0  0  0  0
  -52.0709  -19.0197   72.4900 H   0  0  0  1  0  0  0  0  0  0  0  0
  -50.2748  -20.0341   72.5701 C   0  0  0  1  0  0  0  0  0  0  0  0
  -49.3487  -20.4367   73.2938 O   0  0  0  1  0  0  0  0  0  0  0  0
  -50.4600  -20.2550   71.1740 N   0  0  0  1  0  0  0  0  0  0  0  0
  -51.3102  -19.8599   70.7983 H   0  0  0  1  0  0  0  0  0  0  0  0
  -49.6900  -20.9060   70.2590 C   0  0  0  1  0  0  0  0  0  0  0  0
  -50.2570  -20.8250   69.0000 N   0  0  0  1  0  0  0  0  0  0  0  0
  -49.8842  -21.3783   68.2417 H   0  0  0  1  0  0  0  0  0  0  0  0
  -51.0438  -20.2125   68.8389 H   0  0  0  1  0  0  0  0  0  0  0  0
  -48.6290  -21.7900   70.2920 N   0  0  0  1  0  0  0  0  0  0  0  0
  -47.7070  -22.1200   71.3230 C   0  0  0  1  0  0  0  0  0  0  0  0
  -48.1435  -21.9395   72.3054 H   0  0  0  1  0  0  0  0  0  0  0  0
  -47.3992  -23.1630   71.2482 H   0  0  0  1  0  0  0  0  0  0  0  0
  -46.5220  -21.1840   71.0740 C   0  0  0  1  0  0  0  0  0  0  0  0
  -46.9258  -20.2178   70.7716 H   0  0  0  1  0  0  0  0  0  0  0  0
  -45.9869  -21.0750   72.0173 H   0  0  0  1  0  0  0  0  0  0  0  0
  -45.4860  -21.6160   69.9960 C   0  0  0  1  0  0  0  0  0  0  0  0
  -45.9831  -21.6765   69.0278 H   0  0  0  1  0  0  0  0  0  0  0  0
  -45.0840  -22.5942   70.2597 H   0  0  0  1  0  0  0  0  0  0  0  0
  -44.2930  -20.5720   69.9030 C   0  0  0  1  0  0  0  0  0  0  0  0
  -43.4175  -20.9189   69.3542 H   0  0  0  1  0  0  0  0  0  0  0  0
  -43.9430  -20.2610   71.3950 C   0  0  0  1  0  0  0  0  0  0  0  0
  -43.2680  -21.2970   72.0370 N   0  0  0  1  0  0  0  0  0  0  0  0
  -42.9631  -22.0791   71.4753 H   0  0  0  1  0  0  0  0  0  0  0  0
  -42.9760  -21.3290   73.4430 C   0  0  0  1  0  0  0  0  0  0  0  0
  -42.1220  -21.9707   73.6596 H   0  0  0  1  0  0  0  0  0  0  0  0
  -42.7882  -20.3295   73.8353 H   0  0  0  1  0  0  0  0  0  0  0  0
  -44.2750  -21.9160   74.0000 C   0  0  0  1  0  0  0  0  0  0  0  0
  -44.6710  -23.2570   73.6750 C   0  0  0  1  0  0  0  0  0  0  0  0
  -44.0095  -23.8778   73.0890 H   0  0  0  1  0  0  0  0  0  0  0  0
  -45.9140  -23.7810   74.1090 C   0  0  0  1  0  0  0  0  0  0  0  0
  -46.2001  -24.7938   73.8667 H   0  0  0  1  0  0  0  0  0  0  0  0
  -46.7720  -22.9500   74.8660 C   0  0  0  1  0  0  0  0  0  0  0  0
  -48.0010  -23.3600   75.3380 O   0  0  0  1  0  0  0  0  0  0  0  0
  -48.4837  -22.6994   75.8401 H   0  0  0  1  0  0  0  0  0  0  0  0
  -46.3920  -21.6040   75.1900 C   0  0  0  1  0  0  0  0  0  0  0  0
  -47.0635  -20.9775   75.7583 H   0  0  0  1  0  0  0  0  0  0  0  0
  -45.1510  -21.0990   74.7710 C   0  0  0  1  0  0  0  0  0  0  0  0
  -44.8607  -20.0922   75.0329 H   0  0  0  1  0  0  0  0  0  0  0  0
  -44.2390  -19.1780   71.9410 O   0  0  0  1  0  0  0  0  0  0  0  0
  -44.8310  -19.3810   69.2410 N   0  0  0  1  0  0  0  0  0  0  0  0
  -45.3418  -18.7187   69.8071 H   0  0  0  1  0  0  0  0  0  0  0  0
  -44.6870  -19.1000   67.8890 C   0  0  0  1  0  0  0  0  0  0  0  0
  -44.0790  -19.8190   67.1090 O   0  0  0  1  0  0  0  0  0  0  0  0
  -45.4070  -17.8340   67.4640 C   0  0  0  1  0  0  0  0  0  0  0  0
  -45.5191  -17.1446   68.3008 H   0  0  0  1  0  0  0  0  0  0  0  0
  -46.7920  -18.2790   66.9880 C   0  0  0  1  0  0  0  0  0  0  0  0
  -47.9390  -17.9030   67.6910 C   0  0  0  1  0  0  0  0  0  0  0  0
  -47.8686  -17.2440   68.5437 H   0  0  0  1  0  0  0  0  0  0  0  0
  -49.1880  -18.3970   67.2700 C   0  0  0  1  0  0  0  0  0  0  0  0
  -50.0790  -18.1102   67.8088 H   0  0  0  1  0  0  0  0  0  0  0  0
  -46.9160  -19.1540   65.8530 C   0  0  0  1  0  0  0  0  0  0  0  0
  -46.0285  -19.4383   65.3071 H   0  0  0  1  0  0  0  0  0  0  0  0
  -48.1600  -19.6460   65.4390 C   0  0  0  1  0  0  0  0  0  0  0  0
  -48.2363  -20.3059   64.5875 H   0  0  0  1  0  0  0  0  0  0  0  0
  -49.3010  -19.2650   66.1510 C   0  0  0  1  0  0  0  0  0  0  0  0
  -50.2712  -19.6315   65.8496 H   0  0  0  1  0  0  0  0  0  0  0  0
  -44.6090  -16.9290   66.5050 C   0  0  0  1  0  0  0  0  0  0  0  0
  -43.2450  -16.6910   66.7460 C   0  0  0  1  0  0  0  0  0  0  0  0
  -42.7509  -17.1929   67.5647 H   0  0  0  1  0  0  0  0  0  0  0  0
  -42.5140  -15.8010   65.9270 C   0  0  0  1  0  0  0  0  0  0  0  0
  -41.4684  -15.6253   66.1325 H   0  0  0  1  0  0  0  0  0  0  0  0
  -43.1280  -15.1420   64.8500 C   0  0  0  1  0  0  0  0  0  0  0  0
  -42.5627  -14.4605   64.2316 H   0  0  0  1  0  0  0  0  0  0  0  0
  -44.4780  -15.3790   64.5890 C   0  0  0  1  0  0  0  0  0  0  0  0
  -44.9601  -14.8861   63.7577 H   0  0  0  1  0  0  0  0  0  0  0  0
  -45.2150  -16.2600   65.4070 C   0  0  0  1  0  0  0  0  0  0  0  0
  -46.2603  -16.4297   65.1951 H   0  0  0  1  0  0  0  0  0  0  0  0
  -56.4853  -15.4928   77.6450 O   0  0  0  1  0  0  0  0  0  0  0  0
  1  2  1  0  0  0  0
  1  3  1  0  0  0  0
  1  4  1  0  0  0  0
  1 14  1  0  0  0  0
  4  5  1  0  0  0  0
  4  6  1  0  0  0  0
  6  7  1  0  0  0  0
  6 92  2  0  0  0  0
  7  8  1  0  0  0  0
  7  9  1  0  0  0  0
  7 10  1  0  0  0  0
 10 11  1  0  0  0  0
 10 12  1  0  0  0  0
 10 13  1  0  0  0  0
 14 15  1  0  0  0  0
 14 16  1  0  0  0  0
 14 17  1  0  0  0  0
 17 18  1  0  0  0  0
 17 19  1  0  0  0  0
 17 20  1  0  0  0  0
 20 21  1  0  0  0  0
 20 22  1  0  0  0  0
 20 23  1  0  0  0  0
 23 24  1  0  0  0  0
 23 25  1  0  0  0  0
 25 26  2  0  0  0  0
 25 27  1  0  0  0  0
 27 28  1  0  0  0  0
 27 29  1  0  0  0  0
 29 30  1  0  0  0  0
 29 33  2  0  0  0  0
 30 31  1  0  0  0  0
 30 32  1  0  0  0  0
 33 34  1  0  0  0  0
 34 35  1  0  0  0  0
 34 36  1  0  0  0  0
 34 37  1  0  0  0  0
 37 38  1  0  0  0  0
 37 39  1  0  0  0  0
 37 40  1  0  0  0  0
 40 41  1  0  0  0  0
 40 42  1  0  0  0  0
 40 43  1  0  0  0  0
 43 44  1  0  0  0  0
 43 45  1  0  0  0  0
 43 64  1  0  0  0  0
 45 46  1  0  0  0  0
 45 63  2  0  0  0  0
 46 47  1  0  0  0  0
 46 48  1  0  0  0  0
 48 49  1  0  0  0  0
 48 50  1  0  0  0  0
 48 51  1  0  0  0  0
 51 52  1  0  0  0  0
 51 61  2  0  0  0  0
 52 53  1  0  0  0  0
 52 54  2  0  0  0  0
 54 55  1  0  0  0  0
 54 56  1  0  0  0  0
 56 57  1  0  0  0  0
 56 59  2  0  0  0  0
 57 58  1  0  0  0  0
 59 60  1  0  0  0  0
 59 61  1  0  0  0  0
 61 62  1  0  0  0  0
 64 65  1  0  0  0  0
 64 66  1  0  0  0  0
 66 67  2  0  0  0  0
 66 68  1  0  0  0  0
 68 69  1  0  0  0  0
 68 70  1  0  0  0  0
 68 81  1  0  0  0  0
 70 71  2  0  0  0  0
 70 75  1  0  0  0  0
 71 72  1  0  0  0  0
 71 73  1  0  0  0  0
 73 74  1  0  0  0  0
 73 79  2  0  0  0  0
 75 76  1  0  0  0  0
 75 77  2  0  0  0  0
 77 78  1  0  0  0  0
 77 79  1  0  0  0  0
 79 80  1  0  0  0  0
 81 82  1  0  0  0  0
 81 90  2  0  0  0  0
 82 83  1  0  0  0  0
 82 84  2  0  0  0  0
 84 85  1  0  0  0  0
 84 86  1  0  0  0  0
 86 87  1  0  0  0  0
 86 88  2  0  0  0  0
 88 89  1  0  0  0  0
 88 90  1  0  0  0  0
 90 91  1  0  0  0  0
M  END
> <ConfScore>
-0.681964 

> <SampleByParts>
10 7 6 92 4 1 14 17 20 23 25 26 27 29 30 33

$$$$
NPY1_MK299_12302016.pdb.B
  MOE2014           3D

 92 94  0  0  0  0  0  0  0  0999 V2000
  -54.3919  -17.0037   76.3582 C   0  0  0  1  0  0  0  0  0  0  0  0
  -54.4342  -16.1601   75.6634 H   0  0  0  1  0  0  0  0  0  0  0  0
  -55.2691  -17.6346   76.1803 H   0  0  0  1  0  0  0  0  0  0  0  0
  -54.4875  -16.5160   77.7254 N   0  0  0  1  0  0  0  0  0  0  0  0
  -53.7066  -16.6989   78.3442 H   0  0  0  1  0  0  0  0  0  0  0  0
  -55.5063  -15.8252   78.3238 C   0  0  0  1  0  0  0  0  0  0  0  0
  -55.3382  -15.4627   79.7867 C   0  0  0  1  0  0  0  0  0  0  0  0
  -55.1172  -14.3922   79.8574 H   0  0  0  1  0  0  0  0  0  0  0  0
  -54.4907  -16.0201   80.1979 H   0  0  0  1  0  0  0  0  0  0  0  0
  -56.5789  -15.7696   80.6062 C   0  0  0  1  0  0  0  0  0  0  0  0
  -56.4177  -15.5087   81.6567 H   0  0  0  1  0  0  0  0  0  0  0  0
  -56.8280  -16.8332   80.5516 H   0  0  0  1  0  0  0  0  0  0  0  0
  -57.4421  -15.2037   80.2412 H   0  0  0  1  0  0  0  0  0  0  0  0
  -53.1124  -17.8073   76.1627 C   0  0  0  1  0  0  0  0  0  0  0  0
  -52.2687  -17.2160   76.5343 H   0  0  0  1  0  0  0  0  0  0  0  0
  -53.1453  -18.7132   76.7813 H   0  0  0  1  0  0  0  0  0  0  0  0
  -52.8829  -18.1971   74.6953 C   0  0  0  1  0  0  0  0  0  0  0  0
  -53.7097  -18.8153   74.3459 H   0  0  0  1  0  0  0  0  0  0  0  0
  -52.8262  -17.2912   74.0917 H   0  0  0  1  0  0  0  0  0  0  0  0
  -51.5536  -18.9933   74.5424 C   0  0  0  1  0  0  0  0  0  0  0  0
  -51.6007  -19.9007   75.1445 H   0  0  0  1  0  0  0  0  0  0  0  0
  -50.7191  -18.3776   74.8778 H   0  0  0  1  0  0  0  0  0  0  0  0
  -51.3655  -19.3484   73.1356 N   0  0  0  1  0  0  0  0  0  0  0  0
  -52.0926  -19.0577   72.4977 H   0  0  0  1  0  0  0  0  0  0  0  0
  -50.2840  -20.0500   72.5737 C   0  0  0  1  0  0  0  0  0  0  0  0
  -49.3599  -20.4563   73.2979 O   0  0  0  1  0  0  0  0  0  0  0  0
  -50.4600  -20.2550   71.1740 N   0  0  0  1  0  0  0  0  0  0  0  0
  -51.3023  -19.8462   70.7952 H   0  0  0  1  0  0  0  0  0  0  0  0
  -49.6900  -20.9060   70.2590 C   0  0  0  1  0  0  0  0  0  0  0  0
  -50.2570  -20.8250   69.0000 N   0  0  0  1  0  0  0  0  0  0  0  0
  -49.8842  -21.3783   68.2417 H   0  0  0  1  0  0  0  0  0  0  0  0
  -51.0438  -20.2125   68.8389 H   0  0  0  1  0  0  0  0  0  0  0  0
  -48.6290  -21.7900   70.2920 N   0  0  0  1  0  0  0  0  0  0  0  0
  -47.7070  -22.1200   71.3230 C   0  0  0  1  0  0  0  0  0  0  0  0
  -48.1435  -21.9395   72.3054 H   0  0  0  1  0  0  0  0  0  0  0  0
  -47.3992  -23.1630   71.2482 H   0  0  0  1  0  0  0  0  0  0  0  0
  -46.5220  -21.1840   71.0740 C   0  0  0  1  0  0  0  0  0  0  0  0
  -46.9258  -20.2178   70.7716 H   0  0  0  1  0  0  0  0  0  0  0  0
  -45.9869  -21.0750   72.0173 H   0  0  0  1  0  0  0  0  0  0  0  0
  -45.4860  -21.6160   69.9960 C   0  0  0  1  0  0  0  0  0  0  0  0
  -45.9831  -21.6765   69.0278 H   0  0  0  1  0  0  0  0  0  0  0  0
  -45.0840  -22.5942   70.2597 H   0  0  0  1  0  0  0  0  0  0  0  0
  -44.2930  -20.5720   69.9030 C   0  0  0  1  0  0  0  0  0  0  0  0
  -43.4175  -20.9189   69.3542 H   0  0  0  1  0  0  0  0  0  0  0  0
  -43.9430  -20.2610   71.3950 C   0  0  0  1  0  0  0  0  0  0  0  0
  -43.2680  -21.2970   72.0370 N   0  0  0  1  0  0  0  0  0  0  0  0
  -42.9631  -22.0791   71.4753 H   0  0  0  1  0  0  0  0  0  0  0  0
  -42.9760  -21.3290   73.4430 C   0  0  0  1  0  0  0  0  0  0  0  0
  -42.1220  -21.9707   73.6596 H   0  0  0  1  0  0  0  0  0  0  0  0
  -42.7882  -20.3295   73.8353 H   0  0  0  1  0  0  0  0  0  0  0  0
  -44.2750  -21.9160   74.0000 C   0  0  0  1  0  0  0  0  0  0  0  0
  -44.6710  -23.2570   73.6750 C   0  0  0  1  0  0  0  0  0  0  0  0
  -44.0095  -23.8778   73.0890 H   0  0  0  1  0  0  0  0  0  0  0  0
  -45.9140  -23.7810   74.1090 C   0  0  0  1  0  0  0  0  0  0  0  0
  -46.2001  -24.7938   73.8667 H   0  0  0  1  0  0  0  0  0  0  0  0
  -46.7720  -22.9500   74.8660 C   0  0  0  1  0  0  0  0  0  0  0  0
  -48.0010  -23.3600   75.3380 O   0  0  0  1  0  0  0  0  0  0  0  0
  -48.4837  -22.6994   75.8401 H   0  0  0  1  0  0  0  0  0  0  0  0
  -46.3920  -21.6040   75.1900 C   0  0  0  1  0  0  0  0  0  0  0  0
  -47.0635  -20.9775   75.7583 H   0  0  0  1  0  0  0  0  0  0  0  0
  -45.1510  -21.0990   74.7710 C   0  0  0  1  0  0  0  0  0  0  0  0
  -44.8607  -20.0922   75.0329 H   0  0  0  1  0  0  0  0  0  0  0  0
  -44.2390  -19.1780   71.9410 O   0  0  0  1  0  0  0  0  0  0  0  0
  -44.8310  -19.3810   69.2410 N   0  0  0  1  0  0  0  0  0  0  0  0
  -45.3418  -18.7187   69.8071 H   0  0  0  1  0  0  0  0  0  0  0  0
  -44.6870  -19.1000   67.8890 C   0  0  0  1  0  0  0  0  0  0  0  0
  -44.0790  -19.8190   67.1090 O   0  0  0  1  0  0  0  0  0  0  0  0
  -45.4070  -17.8340   67.4640 C   0  0  0  1  0  0  0  0  0  0  0  0
  -45.5191  -17.1446   68.3008 H   0  0  0  1  0  0  0  0  0  0  0  0
  -46.7920  -18.2790   66.9880 C   0  0  0  1  0  0  0  0  0  0  0  0
  -47.9390  -17.9030   67.6910 C   0  0  0  1  0  0  0  0  0  0  0  0
  -47.8686  -17.2440   68.5437 H   0  0  0  1  0  0  0  0  0  0  0  0
  -49.1880  -18.3970   67.2700 C   0  0  0  1  0  0  0  0  0  0  0  0
  -50.0790  -18.1102   67.8088 H   0  0  0  1  0  0  0  0  0  0  0  0
  -46.9160  -19.1540   65.8530 C   0  0  0  1  0  0  0  0  0  0  0  0
  -46.0285  -19.4383   65.3071 H   0  0  0  1  0  0  0  0  0  0  0  0
  -48.1600  -19.6460   65.4390 C   0  0  0  1  0  0  0  0  0  0  0  0
  -48.2363  -20.3059   64.5875 H   0  0  0  1  0  0  0  0  0  0  0  0
  -49.3010  -19.2650   66.1510 C   0  0  0  1  0  0  0  0  0  0  0  0
  -50.2712  -19.6315   65.8496 H   0  0  0  1  0  0  0  0  0  0  0  0
  -44.6090  -16.9290   66.5050 C   0  0  0  1  0  0  0  0  0  0  0  0
  -43.2450  -16.6910   66.7460 C   0  0  0  1  0  0  0  0  0  0  0  0
  -42.7509  -17.1929   67.5647 H   0  0  0  1  0  0  0  0  0  0  0  0
  -42.5140  -15.8010   65.9270 C   0  0  0  1  0  0  0  0  0  0  0  0
  -41.4684  -15.6253   66.1325 H   0  0  0  1  0  0  0  0  0  0  0  0
  -43.1280  -15.1420   64.8500 C   0  0  0  1  0  0  0  0  0  0  0  0
  -42.5627  -14.4605   64.2316 H   0  0  0  1  0  0  0  0  0  0  0  0
  -44.4780  -15.3790   64.5890 C   0  0  0  1  0  0  0  0  0  0  0  0
  -44.9601  -14.8861   63.7577 H   0  0  0  1  0  0  0  0  0  0  0  0
  -45.2150  -16.2600   65.4070 C   0  0  0  1  0  0  0  0  0  0  0  0
  -46.2603  -16.4297   65.1951 H   0  0  0  1  0  0  0  0  0  0  0  0
  -56.4959  -15.5203   77.6595 O   0  0  0  1  0  0  0  0  0  0  0  0
  1  2  1  0  0  0  0
  1  3  1  0  0  0  0
  1  4  1  0  0  0  0
  1 14  1  0  0  0  0
  4  5  1  0  0  0  0
  4  6  1  0  0  0  0
  6  7  1  0  0  0  0
  6 92  2  0  0  0  0
  7  8  1  0  0  0  0
  7  9  1  0  0  0  0
  7 10  1  0  0  0  0
 10 11  1  0  0  0  0
 10 12  1  0  0  0  0
 10 13  1  0  0  0  0
 14 15  1  0  0  0  0
 14 16  1  0  0  0  0
 14 17  1  0  0  0  0
 17 18  1  0  0  0  0
 17 19  1  0  0  0  0
 17 20  1  0  0  0  0
 20 21  1  0  0  0  0
 20 22  1  0  0  0  0
 20 23  1  0  0  0  0
 23 24  1  0  0  0  0
 23 25  1  0  0  0  0
 25 26  2  0  0  0  0
 25 27  1  0  0  0  0
 27 28  1  0  0  0  0
 27 29  1  0  0  0  0
 29 30  1  0  0  0  0
 29 33  2  0  0  0  0
 30 31  1  0  0  0  0
 30 32  1  0  0  0  0
 33 34  1  0  0  0  0
 34 35  1  0  0  0  0
 34 36  1  0  0  0  0
 34 37  1  0  0  0  0
 37 38  1  0  0  0  0
 37 39  1  0  0  0  0
 37 40  1  0  0  0  0
 40 41  1  0  0  0  0
 40 42  1  0  0  0  0
 40 43  1  0  0  0  0
 43 44  1  0  0  0  0
 43 45  1  0  0  0  0
 43 64  1  0  0  0  0
 45 46  1  0  0  0  0
 45 63  2  0  0  0  0
 46 47  1  0  0  0  0
 46 48  1  0  0  0  0
 48 49  1  0  0  0  0
 48 50  1  0  0  0  0
 48 51  1  0  0  0  0
 51 52  1  0  0  0  0
 51 61  2  0  0  0  0
 52 53  1  0  0  0  0
 52 54  2  0  0  0  0
 54 55  1  0  0  0  0
 54 56  1  0  0  0  0
 56 57  1  0  0  0  0
 56 59  2  0  0  0  0
 57 58  1  0  0  0  0
 59 60  1  0  0  0  0
 59 61  1  0  0  0  0
 61 62  1  0  0  0  0
 64 65  1  0  0  0  0
 64 66  1  0  0  0  0
 66 67  2  0  0  0  0
 66 68  1  0  0  0  0
 68 69  1  0  0  0  0
 68 70  1  0  0  0  0
 68 81  1  0  0  0  0
 70 71  2  0  0  0  0
 70 75  1  0  0  0  0
 71 72  1  0  0  0  0
 71 73  1  0  0  0  0
 73 74  1  0  0  0  0
 73 79  2  0  0  0  0
 75 76  1  0  0  0  0
 75 77  2  0  0  0  0
 77 78  1  0  0  0  0
 77 79  1  0  0  0  0
 79 80  1  0  0  0  0
 81 82  1  0  0  0  0
 81 90  2  0  0  0  0
 82 83  1  0  0  0  0
 82 84  2  0  0  0  0
 84 85  1  0  0  0  0
 84 86  1  0  0  0  0
 86 87  1  0  0  0  0
 86 88  2  0  0  0  0
 88 89  1  0  0  0  0
 88 90  1  0  0  0  0
 90 91  1  0  0  0  0
M  END
> <ConfScore>
-0.681964 

> <SampleByParts>
10 7 6 92 4 1 14 17 20 23 25 26 27 29 30 33

$$$$
NPY1_MK299_12302016.pdb.B
  MOE2014           3D

 92 94  0  0  0  0  0  0  0  0999 V2000
  -54.6469  -17.2955   76.3327 C   0  0  0  1  0  0  0  0  0  0  0  0
  -54.4859  -16.3222   75.8605 H   0  0  0  1  0  0  0  0  0  0  0  0
  -55.5280  -17.7548   75.8722 H   0  0  0  1  0  0  0  0  0  0  0  0
  -54.9506  -17.1102   77.7432 N   0  0  0  1  0  0  0  0  0  0  0  0
  -54.3618  -17.5863   78.4162 H   0  0  0  1  0  0  0  0  0  0  0  0
  -55.9445  -16.3663   78.3194 C   0  0  0  1  0  0  0  0  0  0  0  0
  -56.0266  -16.3656   79.8337 C   0  0  0  1  0  0  0  0  0  0  0  0
  -55.9270  -15.3339   80.1877 H   0  0  0  1  0  0  0  0  0  0  0  0
  -55.1955  -16.9529   80.2369 H   0  0  0  1  0  0  0  0  0  0  0  0
  -57.3352  -16.9423   80.3436 C   0  0  0  1  0  0  0  0  0  0  0  0
  -57.3543  -16.9387   81.4378 H   0  0  0  1  0  0  0  0  0  0  0  0
  -57.4655  -17.9731   80.0020 H   0  0  0  1  0  0  0  0  0  0  0  0
  -58.1893  -16.3593   79.9841 H   0  0  0  1  0  0  0  0  0  0  0  0
  -53.4288  -18.1939   76.1589 C   0  0  0  1  0  0  0  0  0  0  0  0
  -52.5884  -17.7517   76.7046 H   0  0  0  1  0  0  0  0  0  0  0  0
  -53.6170  -19.1685   76.6270 H   0  0  0  1  0  0  0  0  0  0  0  0
  -53.0560  -18.3978   74.6833 C   0  0  0  1  0  0  0  0  0  0  0  0
  -53.8914  -18.8552   74.1533 H   0  0  0  1  0  0  0  0  0  0  0  0
  -52.8289  -17.4296   74.2371 H   0  0  0  1  0  0  0  0  0  0  0  0
  -51.8083  -19.3205   74.5569 C   0  0  0  1  0  0  0  0  0  0  0  0
  -52.0198  -20.2852   75.0183 H   0  0  0  1  0  0  0  0  0  0  0  0
  -50.9591  -18.8564   75.0585 H   0  0  0  1  0  0  0  0  0  0  0  0
  -51.4949  -19.5133   73.1409 N   0  0  0  1  0  0  0  0  0  0  0  0
  -52.0986  -19.0465   72.4795 H   0  0  0  1  0  0  0  0  0  0  0  0
  -50.4456  -20.2771   72.5993 C   0  0  0  1  0  0  0  0  0  0  0  0
  -49.6833  -20.9104   73.3486 O   0  0  0  1  0  0  0  0  0  0  0  0
  -50.4600  -20.2550   71.1740 N   0  0  0  1  0  0  0  0  0  0  0  0
  -51.1638  -19.6515   70.7732 H   0  0  0  1  0  0  0  0  0  0  0  0
  -49.6900  -20.9060   70.2590 C   0  0  0  1  0  0  0  0  0  0  0  0
  -50.2570  -20.8250   69.0000 N   0  0  0  1  0  0  0  0  0  0  0  0
  -49.8842  -21.3783   68.2417 H   0  0  0  1  0  0  0  0  0  0  0  0
  -51.0438  -20.2125   68.8389 H   0  0  0  1  0  0  0  0  0  0  0  0
  -48.6290  -21.7900   70.2920 N   0  0  0  1  0  0  0  0  0  0  0  0
  -47.7070  -22.1200   71.3230 C   0  0  0  1  0  0  0  0  0  0  0  0
  -48.1435  -21.9395   72.3054 H   0  0  0  1  0  0  0  0  0  0  0  0
  -47.3992  -23.1630   71.2482 H   0  0  0  1  0  0  0  0  0  0  0  0
  -46.5220  -21.1840   71.0740 C   0  0  0  1  0  0  0  0  0  0  0  0
  -46.9258  -20.2178   70.7716 H   0  0  0  1  0  0  0  0  0  0  0  0
  -45.9869  -21.0750   72.0173 H   0  0  0  1  0  0  0  0  0  0  0  0
  -45.4860  -21.6160   69.9960 C   0  0  0  1  0  0  0  0  0  0  0  0
  -45.9831  -21.6765   69.0278 H   0  0  0  1  0  0  0  0  0  0  0  0
  -45.0840  -22.5942   70.2597 H   0  0  0  1  0  0  0  0  0  0  0  0
  -44.2930  -20.5720   69.9030 C   0  0  0  1  0  0  0  0  0  0  0  0
  -43.4175  -20.9189   69.3542 H   0  0  0  1  0  0  0  0  0  0  0  0
  -43.9430  -20.2610   71.3950 C   0  0  0  1  0  0  0  0  0  0  0  0
  -43.2680  -21.2970   72.0370 N   0  0  0  1  0  0  0  0  0  0  0  0
  -42.9631  -22.0791   71.4753 H   0  0  0  1  0  0  0  0  0  0  0  0
  -42.9760  -21.3290   73.4430 C   0  0  0  1  0  0  0  0  0  0  0  0
  -42.1220  -21.9707   73.6596 H   0  0  0  1  0  0  0  0  0  0  0  0
  -42.7882  -20.3295   73.8353 H   0  0  0  1  0  0  0  0  0  0  0  0
  -44.2750  -21.9160   74.0000 C   0  0  0  1  0  0  0  0  0  0  0  0
  -44.6710  -23.2570   73.6750 C   0  0  0  1  0  0  0  0  0  0  0  0
  -44.0095  -23.8778   73.0890 H   0  0  0  1  0  0  0  0  0  0  0  0
  -45.9140  -23.7810   74.1090 C   0  0  0  1  0  0  0  0  0  0  0  0
  -46.2001  -24.7938   73.8667 H   0  0  0  1  0  0  0  0  0  0  0  0
  -46.7720  -22.9500   74.8660 C   0  0  0  1  0  0  0  0  0  0  0  0
  -48.0010  -23.3600   75.3380 O   0  0  0  1  0  0  0  0  0  0  0  0
  -48.4837  -22.6994   75.8401 H   0  0  0  1  0  0  0  0  0  0  0  0
  -46.3920  -21.6040   75.1900 C   0  0  0  1  0  0  0  0  0  0  0  0
  -47.0635  -20.9775   75.7583 H   0  0  0  1  0  0  0  0  0  0  0  0
  -45.1510  -21.0990   74.7710 C   0  0  0  1  0  0  0  0  0  0  0  0
  -44.8607  -20.0922   75.0329 H   0  0  0  1  0  0  0  0  0  0  0  0
  -44.2390  -19.1780   71.9410 O   0  0  0  1  0  0  0  0  0  0  0  0
  -44.8310  -19.3810   69.2410 N   0  0  0  1  0  0  0  0  0  0  0  0
  -45.3418  -18.7187   69.8071 H   0  0  0  1  0  0  0  0  0  0  0  0
  -44.6870  -19.1000   67.8890 C   0  0  0  1  0  0  0  0  0  0  0  0
  -44.0790  -19.8190   67.1090 O   0  0  0  1  0  0  0  0  0  0  0  0
  -45.4070  -17.8340   67.4640 C   0  0  0  1  0  0  0  0  0  0  0  0
  -45.5191  -17.1446   68.3008 H   0  0  0  1  0  0  0  0  0  0  0  0
  -46.7920  -18.2790   66.9880 C   0  0  0  1  0  0  0  0  0  0  0  0
  -47.9390  -17.9030   67.6910 C   0  0  0  1  0  0  0  0  0  0  0  0
  -47.8686  -17.2440   68.5437 H   0  0  0  1  0  0  0  0  0  0  0  0
  -49.1880  -18.3970   67.2700 C   0  0  0  1  0  0  0  0  0  0  0  0
  -50.0790  -18.1102   67.8088 H   0  0  0  1  0  0  0  0  0  0  0  0
  -46.9160  -19.1540   65.8530 C   0  0  0  1  0  0  0  0  0  0  0  0
  -46.0285  -19.4383   65.3071 H   0  0  0  1  0  0  0  0  0  0  0  0
  -48.1600  -19.6460   65.4390 C   0  0  0  1  0  0  0  0  0  0  0  0
  -48.2363  -20.3059   64.5875 H   0  0  0  1  0  0  0  0  0  0  0  0
  -49.3010  -19.2650   66.1510 C   0  0  0  1  0  0  0  0  0  0  0  0
  -50.2712  -19.6315   65.8496 H   0  0  0  1  0  0  0  0  0  0  0  0
  -44.6090  -16.9290   66.5050 C   0  0  0  1  0  0  0  0  0  0  0  0
  -43.2450  -16.6910   66.7460 C   0  0  0  1  0  0  0  0  0  0  0  0
  -42.7509  -17.1929   67.5647 H   0  0  0  1  0  0  0  0  0  0  0  0
  -42.5140  -15.8010   65.9270 C   0  0  0  1  0  0  0  0  0  0  0  0
  -41.4684  -15.6253   66.1325 H   0  0  0  1  0  0  0  0  0  0  0  0
  -43.1280  -15.1420   64.8500 C   0  0  0  1  0  0  0  0  0  0  0  0
  -42.5627  -14.4605   64.2316 H   0  0  0  1  0  0  0  0  0  0  0  0
  -44.4780  -15.3790   64.5890 C   0  0  0  1  0  0  0  0  0  0  0  0
  -44.9601  -14.8861   63.7577 H   0  0  0  1  0  0  0  0  0  0  0  0
  -45.2150  -16.2600   65.4070 C   0  0  0  1  0  0  0  0  0  0  0  0
  -46.2603  -16.4297   65.1951 H   0  0  0  1  0  0  0  0  0  0  0  0
  -56.7116  -15.7291   77.5990 O   0  0  0  1  0  0  0  0  0  0  0  0
  1  2  1  0  0  0  0
  1  3  1  0  0  0  0
  1  4  1  0  0  0  0
  1 14  1  0  0  0  0
  4  5  1  0  0  0  0
  4  6  1  0  0  0  0
  6  7  1  0  0  0  0
  6 92  2  0  0  0  0
  7  8  1  0  0  0  0
  7  9  1  0  0  0  0
  7 10  1  0  0  0  0
 10 11  1  0  0  0  0
 10 12  1  0  0  0  0
 10 13  1  0  0  0  0
 14 15  1  0  0  0  0
 14 16  1  0  0  0  0
 14 17  1  0  0  0  0
 17 18  1  0  0  0  0
 17 19  1  0  0  0  0
 17 20  1  0  0  0  0
 20 21  1  0  0  0  0
 20 22  1  0  0  0  0
 20 23  1  0  0  0  0
 23 24  1  0  0  0  0
 23 25  1  0  0  0  0
 25 26  2  0  0  0  0
 25 27  1  0  0  0  0
 27 28  1  0  0  0  0
 27 29  1  0  0  0  0
 29 30  1  0  0  0  0
 29 33  2  0  0  0  0
 30 31  1  0  0  0  0
 30 32  1  0  0  0  0
 33 34  1  0  0  0  0
 34 35  1  0  0  0  0
 34 36  1  0  0  0  0
 34 37  1  0  0  0  0
 37 38  1  0  0  0  0
 37 39  1  0  0  0  0
 37 40  1  0  0  0  0
 40 41  1  0  0  0  0
 40 42  1  0  0  0  0
 40 43  1  0  0  0  0
 43 44  1  0  0  0  0
 43 45  1  0  0  0  0
 43 64  1  0  0  0  0
 45 46  1  0  0  0  0
 45 63  2  0  0  0  0
 46 47  1  0  0  0  0
 46 48  1  0  0  0  0
 48 49  1  0  0  0  0
 48 50  1  0  0  0  0
 48 51  1  0  0  0  0
 51 52  1  0  0  0  0
 51 61  2  0  0  0  0
 52 53  1  0  0  0  0
 52 54  2  0  0  0  0
 54 55  1  0  0  0  0
 54 56  1  0  0  0  0
 56 57  1  0  0  0  0
 56 59  2  0  0  0  0
 57 58  1  0  0  0  0
 59 60  1  0  0  0  0
 59 61  1  0  0  0  0
 61 62  1  0  0  0  0
 64 65  1  0  0  0  0
 64 66  1  0  0  0  0
 66 67  2  0  0  0  0
 66 68  1  0  0  0  0
 68 69  1  0  0  0  0
 68 70  1  0  0  0  0
 68 81  1  0  0  0  0
 70 71  2  0  0  0  0
 70 75  1  0  0  0  0
 71 72  1  0  0  0  0
 71 73  1  0  0  0  0
 73 74  1  0  0  0  0
 73 79  2  0  0  0  0
 75 76  1  0  0  0  0
 75 77  2  0  0  0  0
 77 78  1  0  0  0  0
 77 79  1  0  0  0  0
 79 80  1  0  0  0  0
 81 82  1  0  0  0  0
 81 90  2  0  0  0  0
 82 83  1  0  0  0  0
 82 84  2  0  0  0  0
 84 85  1  0  0  0  0
 84 86  1  0  0  0  0
 86 87  1  0  0  0  0
 86 88  2  0  0  0  0
 88 89  1  0  0  0  0
 88 90  1  0  0  0  0
 90 91  1  0  0  0  0
M  END
> <ConfScore>
-0.681964 

> <SampleByParts>
10 7 6 92 4 1 14 17 20 23 25 26 27 29 30 33

$$$$
NPY1_MK299_12302016.pdb.B
  MOE2014           3D

 92 94  0  0  0  0  0  0  0  0999 V2000
  -54.5372  -17.1492   76.3349 C   0  0  0  1  0  0  0  0  0  0  0  0
  -54.2918  -16.1718   75.9098 H   0  0  0  1  0  0  0  0  0  0  0  0
  -55.4337  -17.5239   75.8298 H   0  0  0  1  0  0  0  0  0  0  0  0
  -54.8717  -16.9998   77.7426 N   0  0  0  1  0  0  0  0  0  0  0  0
  -54.3300  -17.5329   78.4125 H   0  0  0  1  0  0  0  0  0  0  0  0
  -55.8398  -16.2235   78.3199 C   0  0  0  1  0  0  0  0  0  0  0  0
  -55.9510  -16.2568   79.8320 C   0  0  0  1  0  0  0  0  0  0  0  0
  -55.5667  -15.3118   80.2307 H   0  0  0  1  0  0  0  0  0  0  0  0
  -55.3328  -17.0735   80.2178 H   0  0  0  1  0  0  0  0  0  0  0  0
  -57.3809  -16.4510   80.3039 C   0  0  0  1  0  0  0  0  0  0  0  0
  -57.4219  -16.4837   81.3970 H   0  0  0  1  0  0  0  0  0  0  0  0
  -57.7946  -17.3868   79.9174 H   0  0  0  1  0  0  0  0  0  0  0  0
  -58.0234  -15.6334   79.9613 H   0  0  0  1  0  0  0  0  0  0  0  0
  -53.3817  -18.1262   76.1578 C   0  0  0  1  0  0  0  0  0  0  0  0
  -52.5238  -17.7597   76.7318 H   0  0  0  1  0  0  0  0  0  0  0  0
  -53.6473  -19.0976   76.5940 H   0  0  0  1  0  0  0  0  0  0  0  0
  -52.9936  -18.3152   74.6843 C   0  0  0  1  0  0  0  0  0  0  0  0
  -53.8480  -18.6976   74.1257 H   0  0  0  1  0  0  0  0  0  0  0  0
  -52.6901  -17.3536   74.2705 H   0  0  0  1  0  0  0  0  0  0  0  0
  -51.8113  -19.3199   74.5545 C   0  0  0  1  0  0  0  0  0  0  0  0
  -52.1055  -20.2847   74.9677 H   0  0  0  1  0  0  0  0  0  0  0  0
  -50.9478  -18.9393   75.1000 H   0  0  0  1  0  0  0  0  0  0  0  0
  -51.4673  -19.4770   73.1412 N   0  0  0  1  0  0  0  0  0  0  0  0
  -52.0250  -18.9531   72.4821 H   0  0  0  1  0  0  0  0  0  0  0  0
  -50.4456  -20.2771   72.5993 C   0  0  0  1  0  0  0  0  0  0  0  0
  -49.7055  -20.9363   73.3484 O   0  0  0  1  0  0  0  0  0  0  0  0
  -50.4600  -20.2550   71.1740 N   0  0  0  1  0  0  0  0  0  0  0  0
  -51.1638  -19.6515   70.7732 H   0  0  0  1  0  0  0  0  0  0  0  0
  -49.6900  -20.9060   70.2590 C   0  0  0  1  0  0  0  0  0  0  0  0
  -50.2570  -20.8250   69.0000 N   0  0  0  1  0  0  0  0  0  0  0  0
  -49.8842  -21.3783   68.2417 H   0  0  0  1  0  0  0  0  0  0  0  0
  -51.0438  -20.2125   68.8389 H   0  0  0  1  0  0  0  0  0  0  0  0
  -48.6290  -21.7900   70.2920 N   0  0  0  1  0  0  0  0  0  0  0  0
  -47.7070  -22.1200   71.3230 C   0  0  0  1  0  0  0  0  0  0  0  0
  -48.1435  -21.9395   72.3054 H   0  0  0  1  0  0  0  0  0  0  0  0
  -47.3992  -23.1630   71.2482 H   0  0  0  1  0  0  0  0  0  0  0  0
  -46.5220  -21.1840   71.0740 C   0  0  0  1  0  0  0  0  0  0  0  0
  -46.9258  -20.2178   70.7716 H   0  0  0  1  0  0  0  0  0  0  0  0
  -45.9869  -21.0750   72.0173 H   0  0  0  1  0  0  0  0  0  0  0  0
  -45.4860  -21.6160   69.9960 C   0  0  0  1  0  0  0  0  0  0  0  0
  -45.9831  -21.6765   69.0278 H   0  0  0  1  0  0  0  0  0  0  0  0
  -45.0840  -22.5942   70.2597 H   0  0  0  1  0  0  0  0  0  0  0  0
  -44.2930  -20.5720   69.9030 C   0  0  0  1  0  0  0  0  0  0  0  0
  -43.4175  -20.9189   69.3542 H   0  0  0  1  0  0  0  0  0  0  0  0
  -43.9430  -20.2610   71.3950 C   0  0  0  1  0  0  0  0  0  0  0  0
  -43.2680  -21.2970   72.0370 N   0  0  0  1  0  0  0  0  0  0  0  0
  -42.9631  -22.0791   71.4753 H   0  0  0  1  0  0  0  0  0  0  0  0
  -42.9760  -21.3290   73.4430 C   0  0  0  1  0  0  0  0  0  0  0  0
  -42.1220  -21.9707   73.6596 H   0  0  0  1  0  0  0  0  0  0  0  0
  -42.7882  -20.3295   73.8353 H   0  0  0  1  0  0  0  0  0  0  0  0
  -44.2750  -21.9160   74.0000 C   0  0  0  1  0  0  0  0  0  0  0  0
  -44.6710  -23.2570   73.6750 C   0  0  0  1  0  0  0  0  0  0  0  0
  -44.0095  -23.8778   73.0890 H   0  0  0  1  0  0  0  0  0  0  0  0
  -45.9140  -23.7810   74.1090 C   0  0  0  1  0  0  0  0  0  0  0  0
  -46.2001  -24.7938   73.8667 H   0  0  0  1  0  0  0  0  0  0  0  0
  -46.7720  -22.9500   74.8660 C   0  0  0  1  0  0  0  0  0  0  0  0
  -48.0010  -23.3600   75.3380 O   0  0  0  1  0  0  0  0  0  0  0  0
  -48.4837  -22.6994   75.8401 H   0  0  0  1  0  0  0  0  0  0  0  0
  -46.3920  -21.6040   75.1900 C   0  0  0  1  0  0  0  0  0  0  0  0
  -47.0635  -20.9775   75.7583 H   0  0  0  1  0  0  0  0  0  0  0  0
  -45.1510  -21.0990   74.7710 C   0  0  0  1  0  0  0  0  0  0  0  0
  -44.8607  -20.0922   75.0329 H   0  0  0  1  0  0  0  0  0  0  0  0
  -44.2390  -19.1780   71.9410 O   0  0  0  1  0  0  0  0  0  0  0  0
  -44.8310  -19.3810   69.2410 N   0  0  0  1  0  0  0  0  0  0  0  0
  -45.3418  -18.7187   69.8071 H   0  0  0  1  0  0  0  0  0  0  0  0
  -44.6870  -19.1000   67.8890 C   0  0  0  1  0  0  0  0  0  0  0  0
  -44.0790  -19.8190   67.1090 O   0  0  0  1  0  0  0  0  0  0  0  0
  -45.4070  -17.8340   67.4640 C   0  0  0  1  0  0  0  0  0  0  0  0
  -45.5191  -17.1446   68.3008 H   0  0  0  1  0  0  0  0  0  0  0  0
  -46.7920  -18.2790   66.9880 C   0  0  0  1  0  0  0  0  0  0  0  0
  -47.9390  -17.9030   67.6910 C   0  0  0  1  0  0  0  0  0  0  0  0
  -47.8686  -17.2440   68.5437 H   0  0  0  1  0  0  0  0  0  0  0  0
  -49.1880  -18.3970   67.2700 C   0  0  0  1  0  0  0  0  0  0  0  0
  -50.0790  -18.1102   67.8088 H   0  0  0  1  0  0  0  0  0  0  0  0
  -46.9160  -19.1540   65.8530 C   0  0  0  1  0  0  0  0  0  0  0  0
  -46.0285  -19.4383   65.3071 H   0  0  0  1  0  0  0  0  0  0  0  0
  -48.1600  -19.6460   65.4390 C   0  0  0  1  0  0  0  0  0  0  0  0
  -48.2363  -20.3059   64.5875 H   0  0  0  1  0  0  0  0  0  0  0  0
  -49.3010  -19.2650   66.1510 C   0  0  0  1  0  0  0  0  0  0  0  0
  -50.2712  -19.6315   65.8496 H   0  0  0  1  0  0  0  0  0  0  0  0
  -44.6090  -16.9290   66.5050 C   0  0  0  1  0  0  0  0  0  0  0  0
  -43.2450  -16.6910   66.7460 C   0  0  0  1  0  0  0  0  0  0  0  0
  -42.7509  -17.1929   67.5647 H   0  0  0  1  0  0  0  0  0  0  0  0
  -42.5140  -15.8010   65.9270 C   0  0  0  1  0  0  0  0  0  0  0  0
  -41.4684  -15.6253   66.1325 H   0  0  0  1  0  0  0  0  0  0  0  0
  -43.1280  -15.1420   64.8500 C   0  0  0  1  0  0  0  0  0  0  0  0
  -42.5627  -14.4605   64.2316 H   0  0  0  1  0  0  0  0  0  0  0  0
  -44.4780  -15.3790   64.5890 C   0  0  0  1  0  0  0  0  0  0  0  0
  -44.9601  -14.8861   63.7577 H   0  0  0  1  0  0  0  0  0  0  0  0
  -45.2150  -16.2600   65.4070 C   0  0  0  1  0  0  0  0  0  0  0  0
  -46.2603  -16.4297   65.1951 H   0  0  0  1  0  0  0  0  0  0  0  0
  -56.5614  -15.5320   77.6025 O   0  0  0  1  0  0  0  0  0  0  0  0
  1  2  1  0  0  0  0
  1  3  1  0  0  0  0
  1  4  1  0  0  0  0
  1 14  1  0  0  0  0
  4  5  1  0  0  0  0
  4  6  1  0  0  0  0
  6  7  1  0  0  0  0
  6 92  2  0  0  0  0
  7  8  1  0  0  0  0
  7  9  1  0  0  0  0
  7 10  1  0  0  0  0
 10 11  1  0  0  0  0
 10 12  1  0  0  0  0
 10 13  1  0  0  0  0
 14 15  1  0  0  0  0
 14 16  1  0  0  0  0
 14 17  1  0  0  0  0
 17 18  1  0  0  0  0
 17 19  1  0  0  0  0
 17 20  1  0  0  0  0
 20 21  1  0  0  0  0
 20 22  1  0  0  0  0
 20 23  1  0  0  0  0
 23 24  1  0  0  0  0
 23 25  1  0  0  0  0
 25 26  2  0  0  0  0
 25 27  1  0  0  0  0
 27 28  1  0  0  0  0
 27 29  1  0  0  0  0
 29 30  1  0  0  0  0
 29 33  2  0  0  0  0
 30 31  1  0  0  0  0
 30 32  1  0  0  0  0
 33 34  1  0  0  0  0
 34 35  1  0  0  0  0
 34 36  1  0  0  0  0
 34 37  1  0  0  0  0
 37 38  1  0  0  0  0
 37 39  1  0  0  0  0
 37 40  1  0  0  0  0
 40 41  1  0  0  0  0
 40 42  1  0  0  0  0
 40 43  1  0  0  0  0
 43 44  1  0  0  0  0
 43 45  1  0  0  0  0
 43 64  1  0  0  0  0
 45 46  1  0  0  0  0
 45 63  2  0  0  0  0
 46 47  1  0  0  0  0
 46 48  1  0  0  0  0
 48 49  1  0  0  0  0
 48 50  1  0  0  0  0
 48 51  1  0  0  0  0
 51 52  1  0  0  0  0
 51 61  2  0  0  0  0
 52 53  1  0  0  0  0
 52 54  2  0  0  0  0
 54 55  1  0  0  0  0
 54 56  1  0  0  0  0
 56 57  1  0  0  0  0
 56 59  2  0  0  0  0
 57 58  1  0  0  0  0
 59 60  1  0  0  0  0
 59 61  1  0  0  0  0
 61 62  1  0  0  0  0
 64 65  1  0  0  0  0
 64 66  1  0  0  0  0
 66 67  2  0  0  0  0
 66 68  1  0  0  0  0
 68 69  1  0  0  0  0
 68 70  1  0  0  0  0
 68 81  1  0  0  0  0
 70 71  2  0  0  0  0
 70 75  1  0  0  0  0
 71 72  1  0  0  0  0
 71 73  1  0  0  0  0
 73 74  1  0  0  0  0
 73 79  2  0  0  0  0
 75 76  1  0  0  0  0
 75 77  2  0  0  0  0
 77 78  1  0  0  0  0
 77 79  1  0  0  0  0
 79 80  1  0  0  0  0
 81 82  1  0  0  0  0
 81 90  2  0  0  0  0
 82 83  1  0  0  0  0
 82 84  2  0  0  0  0
 84 85  1  0  0  0  0
 84 86  1  0  0  0  0
 86 87  1  0  0  0  0
 86 88  2  0  0  0  0
 88 89  1  0  0  0  0
 88 90  1  0  0  0  0
 90 91  1  0  0  0  0
M  END
> <ConfScore>
-0.681964 

> <SampleByParts>
10 7 6 92 4 1 14 17 20 23 25 26 27 29 30 33

$$$$
NPY1_MK299_12302016.pdb.B
  MOE2014           3D

 92 94  0  0  0  0  0  0  0  0999 V2000
  -54.8040  -16.6874   75.7857 C   0  0  0  1  0  0  0  0  0  0  0  0
  -53.8822  -16.3778   76.2864 H   0  0  0  1  0  0  0  0  0  0  0  0
  -55.5546  -15.9056   75.9422 H   0  0  0  1  0  0  0  0  0  0  0  0
  -55.3145  -17.8994   76.4075 N   0  0  0  1  0  0  0  0  0  0  0  0
  -56.1509  -18.3126   76.0125 H   0  0  0  1  0  0  0  0  0  0  0  0
  -54.8212  -18.5895   77.4815 C   0  0  0  1  0  0  0  0  0  0  0  0
  -55.5705  -19.8350   77.9142 C   0  0  0  1  0  0  0  0  0  0  0  0
  -55.0941  -20.7065   77.4523 H   0  0  0  1  0  0  0  0  0  0  0  0
  -56.6030  -19.7733   77.5562 H   0  0  0  1  0  0  0  0  0  0  0  0
  -55.5776  -20.0128   79.4219 C   0  0  0  1  0  0  0  0  0  0  0  0
  -56.1370  -20.9118   79.6985 H   0  0  0  1  0  0  0  0  0  0  0  0
  -56.0444  -19.1542   79.9129 H   0  0  0  1  0  0  0  0  0  0  0  0
  -54.5592  -20.1095   79.8121 H   0  0  0  1  0  0  0  0  0  0  0  0
  -54.5684  -16.9057   74.2965 C   0  0  0  1  0  0  0  0  0  0  0  0
  -55.5097  -17.2271   73.8377 H   0  0  0  1  0  0  0  0  0  0  0  0
  -54.3066  -15.9530   73.8189 H   0  0  0  1  0  0  0  0  0  0  0  0
  -53.4642  -17.9368   74.0221 C   0  0  0  1  0  0  0  0  0  0  0  0
  -52.5238  -17.5907   74.4510 H   0  0  0  1  0  0  0  0  0  0  0  0
  -53.7436  -18.8866   74.4779 H   0  0  0  1  0  0  0  0  0  0  0  0
  -53.2777  -18.1440   72.4902 C   0  0  0  1  0  0  0  0  0  0  0  0
  -53.1046  -17.1807   72.0103 H   0  0  0  1  0  0  0  0  0  0  0  0
  -54.1741  -18.6022   72.0724 H   0  0  0  1  0  0  0  0  0  0  0  0
  -52.1280  -19.0191   72.2603 N   0  0  0  1  0  0  0  0  0  0  0  0
  -51.6143  -19.3106   73.0795 H   0  0  0  1  0  0  0  0  0  0  0  0
  -51.6594  -19.4991   71.0244 C   0  0  0  1  0  0  0  0  0  0  0  0
  -52.2504  -19.1989   69.9736 O   0  0  0  1  0  0  0  0  0  0  0  0
  -50.4600  -20.2550   71.1740 N   0  0  0  1  0  0  0  0  0  0  0  0
  -50.1228  -20.3188   72.1239 H   0  0  0  1  0  0  0  0  0  0  0  0
  -49.6900  -20.9060   70.2590 C   0  0  0  1  0  0  0  0  0  0  0  0
  -50.2570  -20.8250   69.0000 N   0  0  0  1  0  0  0  0  0  0  0  0
  -49.8842  -21.3783   68.2417 H   0  0  0  1  0  0  0  0  0  0  0  0
  -51.0438  -20.2125   68.8389 H   0  0  0  1  0  0  0  0  0  0  0  0
  -48.6290  -21.7900   70.2920 N   0  0  0  1  0  0  0  0  0  0  0  0
  -47.7070  -22.1200   71.3230 C   0  0  0  1  0  0  0  0  0  0  0  0
  -48.1435  -21.9395   72.3054 H   0  0  0  1  0  0  0  0  0  0  0  0
  -47.3992  -23.1630   71.2482 H   0  0  0  1  0  0  0  0  0  0  0  0
  -46.5220  -21.1840   71.0740 C   0  0  0  1  0  0  0  0  0  0  0  0
  -46.9258  -20.2178   70.7716 H   0  0  0  1  0  0  0  0  0  0  0  0
  -45.9869  -21.0750   72.0173 H   0  0  0  1  0  0  0  0  0  0  0  0
  -45.4860  -21.6160   69.9960 C   0  0  0  1  0  0  0  0  0  0  0  0
  -45.9831  -21.6765   69.0278 H   0  0  0  1  0  0  0  0  0  0  0  0
  -45.0840  -22.5942   70.2597 H   0  0  0  1  0  0  0  0  0  0  0  0
  -44.2930  -20.5720   69.9030 C   0  0  0  1  0  0  0  0  0  0  0  0
  -43.4175  -20.9189   69.3542 H   0  0  0  1  0  0  0  0  0  0  0  0
  -43.9430  -20.2610   71.3950 C   0  0  0  1  0  0  0  0  0  0  0  0
  -43.2680  -21.2970   72.0370 N   0  0  0  1  0  0  0  0  0  0  0  0
  -42.9631  -22.0791   71.4753 H   0  0  0  1  0  0  0  0  0  0  0  0
  -42.9760  -21.3290   73.4430 C   0  0  0  1  0  0  0  0  0  0  0  0
  -42.1220  -21.9707   73.6596 H   0  0  0  1  0  0  0  0  0  0  0  0
  -42.7882  -20.3295   73.8353 H   0  0  0  1  0  0  0  0  0  0  0  0
  -44.2750  -21.9160   74.0000 C   0  0  0  1  0  0  0  0  0  0  0  0
  -44.6710  -23.2570   73.6750 C   0  0  0  1  0  0  0  0  0  0  0  0
  -44.0095  -23.8778   73.0890 H   0  0  0  1  0  0  0  0  0  0  0  0
  -45.9140  -23.7810   74.1090 C   0  0  0  1  0  0  0  0  0  0  0  0
  -46.2001  -24.7938   73.8667 H   0  0  0  1  0  0  0  0  0  0  0  0
  -46.7720  -22.9500   74.8660 C   0  0  0  1  0  0  0  0  0  0  0  0
  -48.0010  -23.3600   75.3380 O   0  0  0  1  0  0  0  0  0  0  0  0
  -48.4837  -22.6994   75.8401 H   0  0  0  1  0  0  0  0  0  0  0  0
  -46.3920  -21.6040   75.1900 C   0  0  0  1  0  0  0  0  0  0  0  0
  -47.0635  -20.9775   75.7583 H   0  0  0  1  0  0  0  0  0  0  0  0
  -45.1510  -21.0990   74.7710 C   0  0  0  1  0  0  0  0  0  0  0  0
  -44.8607  -20.0922   75.0329 H   0  0  0  1  0  0  0  0  0  0  0  0
  -44.2390  -19.1780   71.9410 O   0  0  0  1  0  0  0  0  0  0  0  0
  -44.8310  -19.3810   69.2410 N   0  0  0  1  0  0  0  0  0  0  0  0
  -45.3418  -18.7187   69.8071 H   0  0  0  1  0  0  0  0  0  0  0  0
  -44.6870  -19.1000   67.8890 C   0  0  0  1  0  0  0  0  0  0  0  0
  -44.0790  -19.8190   67.1090 O   0  0  0  1  0  0  0  0  0  0  0  0
  -45.4070  -17.8340   67.4640 C   0  0  0  1  0  0  0  0  0  0  0  0
  -45.5191  -17.1446   68.3008 H   0  0  0  1  0  0  0  0  0  0  0  0
  -46.7920  -18.2790   66.9880 C   0  0  0  1  0  0  0  0  0  0  0  0
  -47.9390  -17.9030   67.6910 C   0  0  0  1  0  0  0  0  0  0  0  0
  -47.8686  -17.2440   68.5437 H   0  0  0  1  0  0  0  0  0  0  0  0
  -49.1880  -18.3970   67.2700 C   0  0  0  1  0  0  0  0  0  0  0  0
  -50.0790  -18.1102   67.8088 H   0  0  0  1  0  0  0  0  0  0  0  0
  -46.9160  -19.1540   65.8530 C   0  0  0  1  0  0  0  0  0  0  0  0
  -46.0285  -19.4383   65.3071 H   0  0  0  1  0  0  0  0  0  0  0  0
  -48.1600  -19.6460   65.4390 C   0  0  0  1  0  0  0  0  0  0  0  0
  -48.2363  -20.3059   64.5875 H   0  0  0  1  0  0  0  0  0  0  0  0
  -49.3010  -19.2650   66.1510 C   0  0  0  1  0  0  0  0  0  0  0  0
  -50.2712  -19.6315   65.8496 H   0  0  0  1  0  0  0  0  0  0  0  0
  -44.6090  -16.9290   66.5050 C   0  0  0  1  0  0  0  0  0  0  0  0
  -43.2450  -16.6910   66.7460 C   0  0  0  1  0  0  0  0  0  0  0  0
  -42.7509  -17.1929   67.5647 H   0  0  0  1  0  0  0  0  0  0  0  0
  -42.5140  -15.8010   65.9270 C   0  0  0  1  0  0  0  0  0  0  0  0
  -41.4684  -15.6253   66.1325 H   0  0  0  1  0  0  0  0  0  0  0  0
  -43.1280  -15.1420   64.8500 C   0  0  0  1  0  0  0  0  0  0  0  0
  -42.5627  -14.4605   64.2316 H   0  0  0  1  0  0  0  0  0  0  0  0
  -44.4780  -15.3790   64.5890 C   0  0  0  1  0  0  0  0  0  0  0  0
  -44.9601  -14.8861   63.7577 H   0  0  0  1  0  0  0  0  0  0  0  0
  -45.2150  -16.2600   65.4070 C   0  0  0  1  0  0  0  0  0  0  0  0
  -46.2603  -16.4297   65.1951 H   0  0  0  1  0  0  0  0  0  0  0  0
  -53.8002  -18.1859   78.0366 O   0  0  0  1  0  0  0  0  0  0  0  0
  1  2  1  0  0  0  0
  1  3  1  0  0  0  0
  1  4  1  0  0  0  0
  1 14  1  0  0  0  0
  4  5  1  0  0  0  0
  4  6  1  0  0  0  0
  6  7  1  0  0  0  0
  6 92  2  0  0  0  0
  7  8  1  0  0  0  0
  7  9  1  0  0  0  0
  7 10  1  0  0  0  0
 10 11  1  0  0  0  0
 10 12  1  0  0  0  0
 10 13  1  0  0  0  0
 14 15  1  0  0  0  0
 14 16  1  0  0  0  0
 14 17  1  0  0  0  0
 17 18  1  0  0  0  0
 17 19  1  0  0  0  0
 17 20  1  0  0  0  0
 20 21  1  0  0  0  0
 20 22  1  0  0  0  0
 20 23  1  0  0  0  0
 23 24  1  0  0  0  0
 23 25  1  0  0  0  0
 25 26  2  0  0  0  0
 25 27  1  0  0  0  0
 27 28  1  0  0  0  0
 27 29  1  0  0  0  0
 29 30  1  0  0  0  0
 29 33  2  0  0  0  0
 30 31  1  0  0  0  0
 30 32  1  0  0  0  0
 33 34  1  0  0  0  0
 34 35  1  0  0  0  0
 34 36  1  0  0  0  0
 34 37  1  0  0  0  0
 37 38  1  0  0  0  0
 37 39  1  0  0  0  0
 37 40  1  0  0  0  0
 40 41  1  0  0  0  0
 40 42  1  0  0  0  0
 40 43  1  0  0  0  0
 43 44  1  0  0  0  0
 43 45  1  0  0  0  0
 43 64  1  0  0  0  0
 45 46  1  0  0  0  0
 45 63  2  0  0  0  0
 46 47  1  0  0  0  0
 46 48  1  0  0  0  0
 48 49  1  0  0  0  0
 48 50  1  0  0  0  0
 48 51  1  0  0  0  0
 51 52  1  0  0  0  0
 51 61  2  0  0  0  0
 52 53  1  0  0  0  0
 52 54  2  0  0  0  0
 54 55  1  0  0  0  0
 54 56  1  0  0  0  0
 56 57  1  0  0  0  0
 56 59  2  0  0  0  0
 57 58  1  0  0  0  0
 59 60  1  0  0  0  0
 59 61  1  0  0  0  0
 61 62  1  0  0  0  0
 64 65  1  0  0  0  0
 64 66  1  0  0  0  0
 66 67  2  0  0  0  0
 66 68  1  0  0  0  0
 68 69  1  0  0  0  0
 68 70  1  0  0  0  0
 68 81  1  0  0  0  0
 70 71  2  0  0  0  0
 70 75  1  0  0  0  0
 71 72  1  0  0  0  0
 71 73  1  0  0  0  0
 73 74  1  0  0  0  0
 73 79  2  0  0  0  0
 75 76  1  0  0  0  0
 75 77  2  0  0  0  0
 77 78  1  0  0  0  0
 77 79  1  0  0  0  0
 79 80  1  0  0  0  0
 81 82  1  0  0  0  0
 81 90  2  0  0  0  0
 82 83  1  0  0  0  0
 82 84  2  0  0  0  0
 84 85  1  0  0  0  0
 84 86  1  0  0  0  0
 86 87  1  0  0  0  0
 86 88  2  0  0  0  0
 88 89  1  0  0  0  0
 88 90  1  0  0  0  0
 90 91  1  0  0  0  0
M  END
> <ConfScore>
-0.679747 

> <SampleByParts>
10 7 6 92 4 1 14 17 20 23 25 26 27 29 30 33

$$$$
NPY1_MK299_12302016.pdb.B
  MOE2014           3D

 92 94  0  0  0  0  0  0  0  0999 V2000
  -54.5961  -16.3518   75.7088 C   0  0  0  1  0  0  0  0  0  0  0  0
  -53.7747  -15.7026   76.0251 H   0  0  0  1  0  0  0  0  0  0  0  0
  -55.5368  -15.8199   75.8859 H   0  0  0  1  0  0  0  0  0  0  0  0
  -54.6201  -17.5479   76.5362 N   0  0  0  1  0  0  0  0  0  0  0  0
  -55.3166  -18.2520   76.3227 H   0  0  0  1  0  0  0  0  0  0  0  0
  -53.8189  -17.8782   77.5955 C   0  0  0  1  0  0  0  0  0  0  0  0
  -53.9992  -19.2558   78.2035 C   0  0  0  1  0  0  0  0  0  0  0  0
  -53.3038  -19.9465   77.7143 H   0  0  0  1  0  0  0  0  0  0  0  0
  -55.0209  -19.5993   78.0136 H   0  0  0  1  0  0  0  0  0  0  0  0
  -53.7416  -19.2674   79.6997 C   0  0  0  1  0  0  0  0  0  0  0  0
  -53.8935  -20.2719   80.1063 H   0  0  0  1  0  0  0  0  0  0  0  0
  -54.4196  -18.5823   80.2166 H   0  0  0  1  0  0  0  0  0  0  0  0
  -52.7159  -18.9580   79.9253 H   0  0  0  1  0  0  0  0  0  0  0  0
  -54.4641  -16.7196   74.2362 C   0  0  0  1  0  0  0  0  0  0  0  0
  -55.3957  -17.1946   73.9103 H   0  0  0  1  0  0  0  0  0  0  0  0
  -54.3603  -15.8079   73.6342 H   0  0  0  1  0  0  0  0  0  0  0  0
  -53.2716  -17.6490   73.9682 C   0  0  0  1  0  0  0  0  0  0  0  0
  -52.3463  -17.1532   74.2620 H   0  0  0  1  0  0  0  0  0  0  0  0
  -53.3950  -18.5623   74.5502 H   0  0  0  1  0  0  0  0  0  0  0  0
  -53.1931  -18.0163   72.4572 C   0  0  0  1  0  0  0  0  0  0  0  0
  -53.0535  -17.1098   71.8683 H   0  0  0  1  0  0  0  0  0  0  0  0
  -54.1169  -18.5084   72.1531 H   0  0  0  1  0  0  0  0  0  0  0  0
  -52.0629  -18.9197   72.2406 N   0  0  0  1  0  0  0  0  0  0  0  0
  -51.5118  -19.1530   73.0541 H   0  0  0  1  0  0  0  0  0  0  0  0
  -51.6594  -19.4991   71.0244 C   0  0  0  1  0  0  0  0  0  0  0  0
  -52.2990  -19.2741   69.9833 O   0  0  0  1  0  0  0  0  0  0  0  0
  -50.4600  -20.2550   71.1740 N   0  0  0  1  0  0  0  0  0  0  0  0
  -50.1228  -20.3188   72.1239 H   0  0  0  1  0  0  0  0  0  0  0  0
  -49.6900  -20.9060   70.2590 C   0  0  0  1  0  0  0  0  0  0  0  0
  -50.2570  -20.8250   69.0000 N   0  0  0  1  0  0  0  0  0  0  0  0
  -49.8842  -21.3783   68.2417 H   0  0  0  1  0  0  0  0  0  0  0  0
  -51.0438  -20.2125   68.8389 H   0  0  0  1  0  0  0  0  0  0  0  0
  -48.6290  -21.7900   70.2920 N   0  0  0  1  0  0  0  0  0  0  0  0
  -47.7070  -22.1200   71.3230 C   0  0  0  1  0  0  0  0  0  0  0  0
  -48.1435  -21.9395   72.3054 H   0  0  0  1  0  0  0  0  0  0  0  0
  -47.3992  -23.1630   71.2482 H   0  0  0  1  0  0  0  0  0  0  0  0
  -46.5220  -21.1840   71.0740 C   0  0  0  1  0  0  0  0  0  0  0  0
  -46.9258  -20.2178   70.7716 H   0  0  0  1  0  0  0  0  0  0  0  0
  -45.9869  -21.0750   72.0173 H   0  0  0  1  0  0  0  0  0  0  0  0
  -45.4860  -21.6160   69.9960 C   0  0  0  1  0  0  0  0  0  0  0  0
  -45.9831  -21.6765   69.0278 H   0  0  0  1  0  0  0  0  0  0  0  0
  -45.0840  -22.5942   70.2597 H   0  0  0  1  0  0  0  0  0  0  0  0
  -44.2930  -20.5720   69.9030 C   0  0  0  1  0  0  0  0  0  0  0  0
  -43.4175  -20.9189   69.3542 H   0  0  0  1  0  0  0  0  0  0  0  0
  -43.9430  -20.2610   71.3950 C   0  0  0  1  0  0  0  0  0  0  0  0
  -43.2680  -21.2970   72.0370 N   0  0  0  1  0  0  0  0  0  0  0  0
  -42.9631  -22.0791   71.4753 H   0  0  0  1  0  0  0  0  0  0  0  0
  -42.9760  -21.3290   73.4430 C   0  0  0  1  0  0  0  0  0  0  0  0
  -42.1220  -21.9707   73.6596 H   0  0  0  1  0  0  0  0  0  0  0  0
  -42.7882  -20.3295   73.8353 H   0  0  0  1  0  0  0  0  0  0  0  0
  -44.2750  -21.9160   74.0000 C   0  0  0  1  0  0  0  0  0  0  0  0
  -44.6710  -23.2570   73.6750 C   0  0  0  1  0  0  0  0  0  0  0  0
  -44.0095  -23.8778   73.0890 H   0  0  0  1  0  0  0  0  0  0  0  0
  -45.9140  -23.7810   74.1090 C   0  0  0  1  0  0  0  0  0  0  0  0
  -46.2001  -24.7938   73.8667 H   0  0  0  1  0  0  0  0  0  0  0  0
  -46.7720  -22.9500   74.8660 C   0  0  0  1  0  0  0  0  0  0  0  0
  -48.0010  -23.3600   75.3380 O   0  0  0  1  0  0  0  0  0  0  0  0
  -48.4837  -22.6994   75.8401 H   0  0  0  1  0  0  0  0  0  0  0  0
  -46.3920  -21.6040   75.1900 C   0  0  0  1  0  0  0  0  0  0  0  0
  -47.0635  -20.9775   75.7583 H   0  0  0  1  0  0  0  0  0  0  0  0
  -45.1510  -21.0990   74.7710 C   0  0  0  1  0  0  0  0  0  0  0  0
  -44.8607  -20.0922   75.0329 H   0  0  0  1  0  0  0  0  0  0  0  0
  -44.2390  -19.1780   71.9410 O   0  0  0  1  0  0  0  0  0  0  0  0
  -44.8310  -19.3810   69.2410 N   0  0  0  1  0  0  0  0  0  0  0  0
  -45.3418  -18.7187   69.8071 H   0  0  0  1  0  0  0  0  0  0  0  0
  -44.6870  -19.1000   67.8890 C   0  0  0  1  0  0  0  0  0  0  0  0
  -44.0790  -19.8190   67.1090 O   0  0  0  1  0  0  0  0  0  0  0  0
  -45.4070  -17.8340   67.4640 C   0  0  0  1  0  0  0  0  0  0  0  0
  -45.5191  -17.1446   68.3008 H   0  0  0  1  0  0  0  0  0  0  0  0
  -46.7920  -18.2790   66.9880 C   0  0  0  1  0  0  0  0  0  0  0  0
  -47.9390  -17.9030   67.6910 C   0  0  0  1  0  0  0  0  0  0  0  0
  -47.8686  -17.2440   68.5437 H   0  0  0  1  0  0  0  0  0  0  0  0
  -49.1880  -18.3970   67.2700 C   0  0  0  1  0  0  0  0  0  0  0  0
  -50.0790  -18.1102   67.8088 H   0  0  0  1  0  0  0  0  0  0  0  0
  -46.9160  -19.1540   65.8530 C   0  0  0  1  0  0  0  0  0  0  0  0
  -46.0285  -19.4383   65.3071 H   0  0  0  1  0  0  0  0  0  0  0  0
  -48.1600  -19.6460   65.4390 C   0  0  0  1  0  0  0  0  0  0  0  0
  -48.2363  -20.3059   64.5875 H   0  0  0  1  0  0  0  0  0  0  0  0
  -49.3010  -19.2650   66.1510 C   0  0  0  1  0  0  0  0  0  0  0  0
  -50.2712  -19.6315   65.8496 H   0  0  0  1  0  0  0  0  0  0  0  0
  -44.6090  -16.9290   66.5050 C   0  0  0  1  0  0  0  0  0  0  0  0
  -43.2450  -16.6910   66.7460 C   0  0  0  1  0  0  0  0  0  0  0  0
  -42.7509  -17.1929   67.5647 H   0  0  0  1  0  0  0  0  0  0  0  0
  -42.5140  -15.8010   65.9270 C   0  0  0  1  0  0  0  0  0  0  0  0
  -41.4684  -15.6253   66.1325 H   0  0  0  1  0  0  0  0  0  0  0  0
  -43.1280  -15.1420   64.8500 C   0  0  0  1  0  0  0  0  0  0  0  0
  -42.5627  -14.4605   64.2316 H   0  0  0  1  0  0  0  0  0  0  0  0
  -44.4780  -15.3790   64.5890 C   0  0  0  1  0  0  0  0  0  0  0  0
  -44.9601  -14.8861   63.7577 H   0  0  0  1  0  0  0  0  0  0  0  0
  -45.2150  -16.2600   65.4070 C   0  0  0  1  0  0  0  0  0  0  0  0
  -46.2603  -16.4297   65.1951 H   0  0  0  1  0  0  0  0  0  0  0  0
  -52.9901  -17.0631   77.9982 O   0  0  0  1  0  0  0  0  0  0  0  0
  1  2  1  0  0  0  0
  1  3  1  0  0  0  0
  1  4  1  0  0  0  0
  1 14  1  0  0  0  0
  4  5  1  0  0  0  0
  4  6  1  0  0  0  0
  6  7  1  0  0  0  0
  6 92  2  0  0  0  0
  7  8  1  0  0  0  0
  7  9  1  0  0  0  0
  7 10  1  0  0  0  0
 10 11  1  0  0  0  0
 10 12  1  0  0  0  0
 10 13  1  0  0  0  0
 14 15  1  0  0  0  0
 14 16  1  0  0  0  0
 14 17  1  0  0  0  0
 17 18  1  0  0  0  0
 17 19  1  0  0  0  0
 17 20  1  0  0  0  0
 20 21  1  0  0  0  0
 20 22  1  0  0  0  0
 20 23  1  0  0  0  0
 23 24  1  0  0  0  0
 23 25  1  0  0  0  0
 25 26  2  0  0  0  0
 25 27  1  0  0  0  0
 27 28  1  0  0  0  0
 27 29  1  0  0  0  0
 29 30  1  0  0  0  0
 29 33  2  0  0  0  0
 30 31  1  0  0  0  0
 30 32  1  0  0  0  0
 33 34  1  0  0  0  0
 34 35  1  0  0  0  0
 34 36  1  0  0  0  0
 34 37  1  0  0  0  0
 37 38  1  0  0  0  0
 37 39  1  0  0  0  0
 37 40  1  0  0  0  0
 40 41  1  0  0  0  0
 40 42  1  0  0  0  0
 40 43  1  0  0  0  0
 43 44  1  0  0  0  0
 43 45  1  0  0  0  0
 43 64  1  0  0  0  0
 45 46  1  0  0  0  0
 45 63  2  0  0  0  0
 46 47  1  0  0  0  0
 46 48  1  0  0  0  0
 48 49  1  0  0  0  0
 48 50  1  0  0  0  0
 48 51  1  0  0  0  0
 51 52  1  0  0  0  0
 51 61  2  0  0  0  0
 52 53  1  0  0  0  0
 52 54  2  0  0  0  0
 54 55  1  0  0  0  0
 54 56  1  0  0  0  0
 56 57  1  0  0  0  0
 56 59  2  0  0  0  0
 57 58  1  0  0  0  0
 59 60  1  0  0  0  0
 59 61  1  0  0  0  0
 61 62  1  0  0  0  0
 64 65  1  0  0  0  0
 64 66  1  0  0  0  0
 66 67  2  0  0  0  0
 66 68  1  0  0  0  0
 68 69  1  0  0  0  0
 68 70  1  0  0  0  0
 68 81  1  0  0  0  0
 70 71  2  0  0  0  0
 70 75  1  0  0  0  0
 71 72  1  0  0  0  0
 71 73  1  0  0  0  0
 73 74  1  0  0  0  0
 73 79  2  0  0  0  0
 75 76  1  0  0  0  0
 75 77  2  0  0  0  0
 77 78  1  0  0  0  0
 77 79  1  0  0  0  0
 79 80  1  0  0  0  0
 81 82  1  0  0  0  0
 81 90  2  0  0  0  0
 82 83  1  0  0  0  0
 82 84  2  0  0  0  0
 84 85  1  0  0  0  0
 84 86  1  0  0  0  0
 86 87  1  0  0  0  0
 86 88  2  0  0  0  0
 88 89  1  0  0  0  0
 88 90  1  0  0  0  0
 90 91  1  0  0  0  0
M  END
> <ConfScore>
-0.679747 

> <SampleByParts>
10 7 6 92 4 1 14 17 20 23 25 26 27 29 30 33

$$$$
NPY1_MK299_12302016.pdb.B
  MOE2014           3D

 92 94  0  0  0  0  0  0  0  0999 V2000
  -54.3639  -16.9539   76.3480 C   0  0  0  1  0  0  0  0  0  0  0  0
  -55.2534  -17.4456   75.9439 H   0  0  0  1  0  0  0  0  0  0  0  0
  -54.5369  -16.7596   77.4117 H   0  0  0  1  0  0  0  0  0  0  0  0
  -54.1833  -15.6630   75.7024 N   0  0  0  1  0  0  0  0  0  0  0  0
  -53.2408  -15.2961   75.6432 H   0  0  0  1  0  0  0  0  0  0  0  0
  -55.1240  -14.8401   75.1447 C   0  0  0  1  0  0  0  0  0  0  0  0
  -54.6456  -13.5176   74.5773 C   0  0  0  1  0  0  0  0  0  0  0  0
  -55.2970  -13.2408   73.7413 H   0  0  0  1  0  0  0  0  0  0  0  0
  -53.6262  -13.6395   74.1976 H   0  0  0  1  0  0  0  0  0  0  0  0
  -54.6610  -12.4044   75.6096 C   0  0  0  1  0  0  0  0  0  0  0  0
  -54.2978  -11.4702   75.1702 H   0  0  0  1  0  0  0  0  0  0  0  0
  -54.0213  -12.6542   76.4608 H   0  0  0  1  0  0  0  0  0  0  0  0
  -55.6734  -12.2334   75.9895 H   0  0  0  1  0  0  0  0  0  0  0  0
  -53.1279  -17.8252   76.1625 C   0  0  0  1  0  0  0  0  0  0  0  0
  -52.2639  -17.2992   76.5826 H   0  0  0  1  0  0  0  0  0  0  0  0
  -53.2347  -18.7491   76.7449 H   0  0  0  1  0  0  0  0  0  0  0  0
  -52.8724  -18.1750   74.6893 C   0  0  0  1  0  0  0  0  0  0  0  0
  -53.7141  -18.7449   74.2959 H   0  0  0  1  0  0  0  0  0  0  0  0
  -52.7601  -17.2526   74.1194 H   0  0  0  1  0  0  0  0  0  0  0  0
  -51.5740  -19.0221   74.5455 C   0  0  0  1  0  0  0  0  0  0  0  0
  -51.6768  -19.9464   75.1142 H   0  0  0  1  0  0  0  0  0  0  0  0
  -50.7244  -18.4546   74.9251 H   0  0  0  1  0  0  0  0  0  0  0  0
  -51.3603  -19.3376   73.1330 N   0  0  0  1  0  0  0  0  0  0  0  0
  -52.0556  -18.9945   72.4858 H   0  0  0  1  0  0  0  0  0  0  0  0
  -50.2934  -20.0658   72.5771 C   0  0  0  1  0  0  0  0  0  0  0  0
  -49.3893  -20.5043   73.3078 O   0  0  0  1  0  0  0  0  0  0  0  0
  -50.4600  -20.2550   71.1740 N   0  0  0  1  0  0  0  0  0  0  0  0
  -51.2943  -19.8326   70.7923 H   0  0  0  1  0  0  0  0  0  0  0  0
  -49.6900  -20.9060   70.2590 C   0  0  0  1  0  0  0  0  0  0  0  0
  -50.2570  -20.8250   69.0000 N   0  0  0  1  0  0  0  0  0  0  0  0
  -49.8842  -21.3783   68.2417 H   0  0  0  1  0  0  0  0  0  0  0  0
  -51.0438  -20.2125   68.8389 H   0  0  0  1  0  0  0  0  0  0  0  0
  -48.6290  -21.7900   70.2920 N   0  0  0  1  0  0  0  0  0  0  0  0
  -47.7070  -22.1200   71.3230 C   0  0  0  1  0  0  0  0  0  0  0  0
  -48.1435  -21.9395   72.3054 H   0  0  0  1  0  0  0  0  0  0  0  0
  -47.3992  -23.1630   71.2482 H   0  0  0  1  0  0  0  0  0  0  0  0
  -46.5220  -21.1840   71.0740 C   0  0  0  1  0  0  0  0  0  0  0  0
  -46.9258  -20.2178   70.7716 H   0  0  0  1  0  0  0  0  0  0  0  0
  -45.9869  -21.0750   72.0173 H   0  0  0  1  0  0  0  0  0  0  0  0
  -45.4860  -21.6160   69.9960 C   0  0  0  1  0  0  0  0  0  0  0  0
  -45.9831  -21.6765   69.0278 H   0  0  0  1  0  0  0  0  0  0  0  0
  -45.0840  -22.5942   70.2597 H   0  0  0  1  0  0  0  0  0  0  0  0
  -44.2930  -20.5720   69.9030 C   0  0  0  1  0  0  0  0  0  0  0  0
  -43.4175  -20.9189   69.3542 H   0  0  0  1  0  0  0  0  0  0  0  0
  -43.9430  -20.2610   71.3950 C   0  0  0  1  0  0  0  0  0  0  0  0
  -43.2680  -21.2970   72.0370 N   0  0  0  1  0  0  0  0  0  0  0  0
  -42.9631  -22.0791   71.4753 H   0  0  0  1  0  0  0  0  0  0  0  0
  -42.9760  -21.3290   73.4430 C   0  0  0  1  0  0  0  0  0  0  0  0
  -42.1220  -21.9707   73.6596 H   0  0  0  1  0  0  0  0  0  0  0  0
  -42.7882  -20.3295   73.8353 H   0  0  0  1  0  0  0  0  0  0  0  0
  -44.2750  -21.9160   74.0000 C   0  0  0  1  0  0  0  0  0  0  0  0
  -44.6710  -23.2570   73.6750 C   0  0  0  1  0  0  0  0  0  0  0  0
  -44.0095  -23.8778   73.0890 H   0  0  0  1  0  0  0  0  0  0  0  0
  -45.9140  -23.7810   74.1090 C   0  0  0  1  0  0  0  0  0  0  0  0
  -46.2001  -24.7938   73.8667 H   0  0  0  1  0  0  0  0  0  0  0  0
  -46.7720  -22.9500   74.8660 C   0  0  0  1  0  0  0  0  0  0  0  0
  -48.0010  -23.3600   75.3380 O   0  0  0  1  0  0  0  0  0  0  0  0
  -48.4837  -22.6994   75.8401 H   0  0  0  1  0  0  0  0  0  0  0  0
  -46.3920  -21.6040   75.1900 C   0  0  0  1  0  0  0  0  0  0  0  0
  -47.0635  -20.9775   75.7583 H   0  0  0  1  0  0  0  0  0  0  0  0
  -45.1510  -21.0990   74.7710 C   0  0  0  1  0  0  0  0  0  0  0  0
  -44.8607  -20.0922   75.0329 H   0  0  0  1  0  0  0  0  0  0  0  0
  -44.2390  -19.1780   71.9410 O   0  0  0  1  0  0  0  0  0  0  0  0
  -44.8310  -19.3810   69.2410 N   0  0  0  1  0  0  0  0  0  0  0  0
  -45.3418  -18.7187   69.8071 H   0  0  0  1  0  0  0  0  0  0  0  0
  -44.6870  -19.1000   67.8890 C   0  0  0  1  0  0  0  0  0  0  0  0
  -44.0790  -19.8190   67.1090 O   0  0  0  1  0  0  0  0  0  0  0  0
  -45.4070  -17.8340   67.4640 C   0  0  0  1  0  0  0  0  0  0  0  0
  -45.5191  -17.1446   68.3008 H   0  0  0  1  0  0  0  0  0  0  0  0
  -46.7920  -18.2790   66.9880 C   0  0  0  1  0  0  0  0  0  0  0  0
  -47.9390  -17.9030   67.6910 C   0  0  0  1  0  0  0  0  0  0  0  0
  -47.8686  -17.2440   68.5437 H   0  0  0  1  0  0  0  0  0  0  0  0
  -49.1880  -18.3970   67.2700 C   0  0  0  1  0  0  0  0  0  0  0  0
  -50.0790  -18.1102   67.8088 H   0  0  0  1  0  0  0  0  0  0  0  0
  -46.9160  -19.1540   65.8530 C   0  0  0  1  0  0  0  0  0  0  0  0
  -46.0285  -19.4383   65.3071 H   0  0  0  1  0  0  0  0  0  0  0  0
  -48.1600  -19.6460   65.4390 C   0  0  0  1  0  0  0  0  0  0  0  0
  -48.2363  -20.3059   64.5875 H   0  0  0  1  0  0  0  0  0  0  0  0
  -49.3010  -19.2650   66.1510 C   0  0  0  1  0  0  0  0  0  0  0  0
  -50.2712  -19.6315   65.8496 H   0  0  0  1  0  0  0  0  0  0  0  0
  -44.6090  -16.9290   66.5050 C   0  0  0  1  0  0  0  0  0  0  0  0
  -43.2450  -16.6910   66.7460 C   0  0  0  1  0  0  0  0  0  0  0  0
  -42.7509  -17.1929   67.5647 H   0  0  0  1  0  0  0  0  0  0  0  0
  -42.5140  -15.8010   65.9270 C   0  0  0  1  0  0  0  0  0  0  0  0
  -41.4684  -15.6253   66.1325 H   0  0  0  1  0  0  0  0  0  0  0  0
  -43.1280  -15.1420   64.8500 C   0  0  0  1  0  0  0  0  0  0  0  0
  -42.5627  -14.4605   64.2316 H   0  0  0  1  0  0  0  0  0  0  0  0
  -44.4780  -15.3790   64.5890 C   0  0  0  1  0  0  0  0  0  0  0  0
  -44.9601  -14.8861   63.7577 H   0  0  0  1  0  0  0  0  0  0  0  0
  -45.2150  -16.2600   65.4070 C   0  0  0  1  0  0  0  0  0  0  0  0
  -46.2603  -16.4297   65.1951 H   0  0  0  1  0  0  0  0  0  0  0  0
  -56.2986  -15.2047   75.1155 O   0  0  0  1  0  0  0  0  0  0  0  0
  1  2  1  0  0  0  0
  1  3  1  0  0  0  0
  1  4  1  0  0  0  0
  1 14  1  0  0  0  0
  4  5  1  0  0  0  0
  4  6  1  0  0  0  0
  6  7  1  0  0  0  0
  6 92  2  0  0  0  0
  7  8  1  0  0  0  0
  7  9  1  0  0  0  0
  7 10  1  0  0  0  0
 10 11  1  0  0  0  0
 10 12  1  0  0  0  0
 10 13  1  0  0  0  0
 14 15  1  0  0  0  0
 14 16  1  0  0  0  0
 14 17  1  0  0  0  0
 17 18  1  0  0  0  0
 17 19  1  0  0  0  0
 17 20  1  0  0  0  0
 20 21  1  0  0  0  0
 20 22  1  0  0  0  0
 20 23  1  0  0  0  0
 23 24  1  0  0  0  0
 23 25  1  0  0  0  0
 25 26  2  0  0  0  0
 25 27  1  0  0  0  0
 27 28  1  0  0  0  0
 27 29  1  0  0  0  0
 29 30  1  0  0  0  0
 29 33  2  0  0  0  0
 30 31  1  0  0  0  0
 30 32  1  0  0  0  0
 33 34  1  0  0  0  0
 34 35  1  0  0  0  0
 34 36  1  0  0  0  0
 34 37  1  0  0  0  0
 37 38  1  0  0  0  0
 37 39  1  0  0  0  0
 37 40  1  0  0  0  0
 40 41  1  0  0  0  0
 40 42  1  0  0  0  0
 40 43  1  0  0  0  0
 43 44  1  0  0  0  0
 43 45  1  0  0  0  0
 43 64  1  0  0  0  0
 45 46  1  0  0  0  0
 45 63  2  0  0  0  0
 46 47  1  0  0  0  0
 46 48  1  0  0  0  0
 48 49  1  0  0  0  0
 48 50  1  0  0  0  0
 48 51  1  0  0  0  0
 51 52  1  0  0  0  0
 51 61  2  0  0  0  0
 52 53  1  0  0  0  0
 52 54  2  0  0  0  0
 54 55  1  0  0  0  0
 54 56  1  0  0  0  0
 56 57  1  0  0  0  0
 56 59  2  0  0  0  0
 57 58  1  0  0  0  0
 59 60  1  0  0  0  0
 59 61  1  0  0  0  0
 61 62  1  0  0  0  0
 64 65  1  0  0  0  0
 64 66  1  0  0  0  0
 66 67  2  0  0  0  0
 66 68  1  0  0  0  0
 68 69  1  0  0  0  0
 68 70  1  0  0  0  0
 68 81  1  0  0  0  0
 70 71  2  0  0  0  0
 70 75  1  0  0  0  0
 71 72  1  0  0  0  0
 71 73  1  0  0  0  0
 73 74  1  0  0  0  0
 73 79  2  0  0  0  0
 75 76  1  0  0  0  0
 75 77  2  0  0  0  0
 77 78  1  0  0  0  0
 77 79  1  0  0  0  0
 79 80  1  0  0  0  0
 81 82  1  0  0  0  0
 81 90  2  0  0  0  0
 82 83  1  0  0  0  0
 82 84  2  0  0  0  0
 84 85  1  0  0  0  0
 84 86  1  0  0  0  0
 86 87  1  0  0  0  0
 86 88  2  0  0  0  0
 88 89  1  0  0  0  0
 88 90  1  0  0  0  0
 90 91  1  0  0  0  0
M  END
> <ConfScore>
-0.677169 

> <SampleByParts>
10 7 6 92 4 1 14 17 20 23 25 26 27 29 30 33

$$$$
NPY1_MK299_12302016.pdb.B
  MOE2014           3D

 92 94  0  0  0  0  0  0  0  0999 V2000
  -54.4738  -17.0711   76.3372 C   0  0  0  1  0  0  0  0  0  0  0  0
  -55.3729  -17.4156   75.8183 H   0  0  0  1  0  0  0  0  0  0  0  0
  -54.7175  -16.9555   77.3986 H   0  0  0  1  0  0  0  0  0  0  0  0
  -54.0963  -15.7569   75.8407 N   0  0  0  1  0  0  0  0  0  0  0  0
  -53.1119  -15.5177   75.8485 H   0  0  0  1  0  0  0  0  0  0  0  0
  -54.8950  -14.7603   75.3489 C   0  0  0  1  0  0  0  0  0  0  0  0
  -54.2200  -13.4690   74.9283 C   0  0  0  1  0  0  0  0  0  0  0  0
  -54.7735  -13.0455   74.0832 H   0  0  0  1  0  0  0  0  0  0  0  0
  -53.1996  -13.6899   74.5994 H   0  0  0  1  0  0  0  0  0  0  0  0
  -54.1697  -12.4487   76.0514 C   0  0  0  1  0  0  0  0  0  0  0  0
  -53.6653  -11.5368   75.7174 H   0  0  0  1  0  0  0  0  0  0  0  0
  -53.6256  -12.8452   76.9133 H   0  0  0  1  0  0  0  0  0  0  0  0
  -55.1772  -12.1802   76.3852 H   0  0  0  1  0  0  0  0  0  0  0  0
  -53.3295  -18.0613   76.1606 C   0  0  0  1  0  0  0  0  0  0  0  0
  -52.4587  -17.6902   76.7118 H   0  0  0  1  0  0  0  0  0  0  0  0
  -53.5953  -19.0211   76.6216 H   0  0  0  1  0  0  0  0  0  0  0  0
  -52.9690  -18.2842   74.6848 C   0  0  0  1  0  0  0  0  0  0  0  0
  -53.8308  -18.6876   74.1531 H   0  0  0  1  0  0  0  0  0  0  0  0
  -52.6821  -17.3309   74.2411 H   0  0  0  1  0  0  0  0  0  0  0  0
  -51.7807  -19.2821   74.5568 C   0  0  0  1  0  0  0  0  0  0  0  0
  -52.0583  -20.2386   74.9998 H   0  0  0  1  0  0  0  0  0  0  0  0
  -50.9100  -18.8808   75.0752 H   0  0  0  1  0  0  0  0  0  0  0  0
  -51.4633  -19.4720   73.1413 N   0  0  0  1  0  0  0  0  0  0  0  0
  -52.0385  -18.9695   72.4805 H   0  0  0  1  0  0  0  0  0  0  0  0
  -50.4456  -20.2771   72.5993 C   0  0  0  1  0  0  0  0  0  0  0  0
  -49.7086  -20.9399   73.3484 O   0  0  0  1  0  0  0  0  0  0  0  0
  -50.4600  -20.2550   71.1740 N   0  0  0  1  0  0  0  0  0  0  0  0
  -51.1638  -19.6515   70.7732 H   0  0  0  1  0  0  0  0  0  0  0  0
  -49.6900  -20.9060   70.2590 C   0  0  0  1  0  0  0  0  0  0  0  0
  -50.2570  -20.8250   69.0000 N   0  0  0  1  0  0  0  0  0  0  0  0
  -49.8842  -21.3783   68.2417 H   0  0  0  1  0  0  0  0  0  0  0  0
  -51.0438  -20.2125   68.8389 H   0  0  0  1  0  0  0  0  0  0  0  0
  -48.6290  -21.7900   70.2920 N   0  0  0  1  0  0  0  0  0  0  0  0
  -47.7070  -22.1200   71.3230 C   0  0  0  1  0  0  0  0  0  0  0  0
  -48.1435  -21.9395   72.3054 H   0  0  0  1  0  0  0  0  0  0  0  0
  -47.3992  -23.1630   71.2482 H   0  0  0  1  0  0  0  0  0  0  0  0
  -46.5220  -21.1840   71.0740 C   0  0  0  1  0  0  0  0  0  0  0  0
  -46.9258  -20.2178   70.7716 H   0  0  0  1  0  0  0  0  0  0  0  0
  -45.9869  -21.0750   72.0173 H   0  0  0  1  0  0  0  0  0  0  0  0
  -45.4860  -21.6160   69.9960 C   0  0  0  1  0  0  0  0  0  0  0  0
  -45.9831  -21.6765   69.0278 H   0  0  0  1  0  0  0  0  0  0  0  0
  -45.0840  -22.5942   70.2597 H   0  0  0  1  0  0  0  0  0  0  0  0
  -44.2930  -20.5720   69.9030 C   0  0  0  1  0  0  0  0  0  0  0  0
  -43.4175  -20.9189   69.3542 H   0  0  0  1  0  0  0  0  0  0  0  0
  -43.9430  -20.2610   71.3950 C   0  0  0  1  0  0  0  0  0  0  0  0
  -43.2680  -21.2970   72.0370 N   0  0  0  1  0  0  0  0  0  0  0  0
  -42.9631  -22.0791   71.4753 H   0  0  0  1  0  0  0  0  0  0  0  0
  -42.9760  -21.3290   73.4430 C   0  0  0  1  0  0  0  0  0  0  0  0
  -42.1220  -21.9707   73.6596 H   0  0  0  1  0  0  0  0  0  0  0  0
  -42.7882  -20.3295   73.8353 H   0  0  0  1  0  0  0  0  0  0  0  0
  -44.2750  -21.9160   74.0000 C   0  0  0  1  0  0  0  0  0  0  0  0
  -44.6710  -23.2570   73.6750 C   0  0  0  1  0  0  0  0  0  0  0  0
  -44.0095  -23.8778   73.0890 H   0  0  0  1  0  0  0  0  0  0  0  0
  -45.9140  -23.7810   74.1090 C   0  0  0  1  0  0  0  0  0  0  0  0
  -46.2001  -24.7938   73.8667 H   0  0  0  1  0  0  0  0  0  0  0  0
  -46.7720  -22.9500   74.8660 C   0  0  0  1  0  0  0  0  0  0  0  0
  -48.0010  -23.3600   75.3380 O   0  0  0  1  0  0  0  0  0  0  0  0
  -48.4837  -22.6994   75.8401 H   0  0  0  1  0  0  0  0  0  0  0  0
  -46.3920  -21.6040   75.1900 C   0  0  0  1  0  0  0  0  0  0  0  0
  -47.0635  -20.9775   75.7583 H   0  0  0  1  0  0  0  0  0  0  0  0
  -45.1510  -21.0990   74.7710 C   0  0  0  1  0  0  0  0  0  0  0  0
  -44.8607  -20.0922   75.0329 H   0  0  0  1  0  0  0  0  0  0  0  0
  -44.2390  -19.1780   71.9410 O   0  0  0  1  0  0  0  0  0  0  0  0
  -44.8310  -19.3810   69.2410 N   0  0  0  1  0  0  0  0  0  0  0  0
  -45.3418  -18.7187   69.8071 H   0  0  0  1  0  0  0  0  0  0  0  0
  -44.6870  -19.1000   67.8890 C   0  0  0  1  0  0  0  0  0  0  0  0
  -44.0790  -19.8190   67.1090 O   0  0  0  1  0  0  0  0  0  0  0  0
  -45.4070  -17.8340   67.4640 C   0  0  0  1  0  0  0  0  0  0  0  0
  -45.5191  -17.1446   68.3008 H   0  0  0  1  0  0  0  0  0  0  0  0
  -46.7920  -18.2790   66.9880 C   0  0  0  1  0  0  0  0  0  0  0  0
  -47.9390  -17.9030   67.6910 C   0  0  0  1  0  0  0  0  0  0  0  0
  -47.8686  -17.2440   68.5437 H   0  0  0  1  0  0  0  0  0  0  0  0
  -49.1880  -18.3970   67.2700 C   0  0  0  1  0  0  0  0  0  0  0  0
  -50.0790  -18.1102   67.8088 H   0  0  0  1  0  0  0  0  0  0  0  0
  -46.9160  -19.1540   65.8530 C   0  0  0  1  0  0  0  0  0  0  0  0
  -46.0285  -19.4383   65.3071 H   0  0  0  1  0  0  0  0  0  0  0  0
  -48.1600  -19.6460   65.4390 C   0  0  0  1  0  0  0  0  0  0  0  0
  -48.2363  -20.3059   64.5875 H   0  0  0  1  0  0  0  0  0  0  0  0
  -49.3010  -19.2650   66.1510 C   0  0  0  1  0  0  0  0  0  0  0  0
  -50.2712  -19.6315   65.8496 H   0  0  0  1  0  0  0  0  0  0  0  0
  -44.6090  -16.9290   66.5050 C   0  0  0  1  0  0  0  0  0  0  0  0
  -43.2450  -16.6910   66.7460 C   0  0  0  1  0  0  0  0  0  0  0  0
  -42.7509  -17.1929   67.5647 H   0  0  0  1  0  0  0  0  0  0  0  0
  -42.5140  -15.8010   65.9270 C   0  0  0  1  0  0  0  0  0  0  0  0
  -41.4684  -15.6253   66.1325 H   0  0  0  1  0  0  0  0  0  0  0  0
  -43.1280  -15.1420   64.8500 C   0  0  0  1  0  0  0  0  0  0  0  0
  -42.5627  -14.4605   64.2316 H   0  0  0  1  0  0  0  0  0  0  0  0
  -44.4780  -15.3790   64.5890 C   0  0  0  1  0  0  0  0  0  0  0  0
  -44.9601  -14.8861   63.7577 H   0  0  0  1  0  0  0  0  0  0  0  0
  -45.2150  -16.2600   65.4070 C   0  0  0  1  0  0  0  0  0  0  0  0
  -46.2603  -16.4297   65.1951 H   0  0  0  1  0  0  0  0  0  0  0  0
  -56.1068  -14.9522   75.2579 O   0  0  0  1  0  0  0  0  0  0  0  0
  1  2  1  0  0  0  0
  1  3  1  0  0  0  0
  1  4  1  0  0  0  0
  1 14  1  0  0  0  0
  4  5  1  0  0  0  0
  4  6  1  0  0  0  0
  6  7  1  0  0  0  0
  6 92  2  0  0  0  0
  7  8  1  0  0  0  0
  7  9  1  0  0  0  0
  7 10  1  0  0  0  0
 10 11  1  0  0  0  0
 10 12  1  0  0  0  0
 10 13  1  0  0  0  0
 14 15  1  0  0  0  0
 14 16  1  0  0  0  0
 14 17  1  0  0  0  0
 17 18  1  0  0  0  0
 17 19  1  0  0  0  0
 17 20  1  0  0  0  0
 20 21  1  0  0  0  0
 20 22  1  0  0  0  0
 20 23  1  0  0  0  0
 23 24  1  0  0  0  0
 23 25  1  0  0  0  0
 25 26  2  0  0  0  0
 25 27  1  0  0  0  0
 27 28  1  0  0  0  0
 27 29  1  0  0  0  0
 29 30  1  0  0  0  0
 29 33  2  0  0  0  0
 30 31  1  0  0  0  0
 30 32  1  0  0  0  0
 33 34  1  0  0  0  0
 34 35  1  0  0  0  0
 34 36  1  0  0  0  0
 34 37  1  0  0  0  0
 37 38  1  0  0  0  0
 37 39  1  0  0  0  0
 37 40  1  0  0  0  0
 40 41  1  0  0  0  0
 40 42  1  0  0  0  0
 40 43  1  0  0  0  0
 43 44  1  0  0  0  0
 43 45  1  0  0  0  0
 43 64  1  0  0  0  0
 45 46  1  0  0  0  0
 45 63  2  0  0  0  0
 46 47  1  0  0  0  0
 46 48  1  0  0  0  0
 48 49  1  0  0  0  0
 48 50  1  0  0  0  0
 48 51  1  0  0  0  0
 51 52  1  0  0  0  0
 51 61  2  0  0  0  0
 52 53  1  0  0  0  0
 52 54  2  0  0  0  0
 54 55  1  0  0  0  0
 54 56  1  0  0  0  0
 56 57  1  0  0  0  0
 56 59  2  0  0  0  0
 57 58  1  0  0  0  0
 59 60  1  0  0  0  0
 59 61  1  0  0  0  0
 61 62  1  0  0  0  0
 64 65  1  0  0  0  0
 64 66  1  0  0  0  0
 66 67  2  0  0  0  0
 66 68  1  0  0  0  0
 68 69  1  0  0  0  0
 68 70  1  0  0  0  0
 68 81  1  0  0  0  0
 70 71  2  0  0  0  0
 70 75  1  0  0  0  0
 71 72  1  0  0  0  0
 71 73  1  0  0  0  0
 73 74  1  0  0  0  0
 73 79  2  0  0  0  0
 75 76  1  0  0  0  0
 75 77  2  0  0  0  0
 77 78  1  0  0  0  0
 77 79  1  0  0  0  0
 79 80  1  0  0  0  0
 81 82  1  0  0  0  0
 81 90  2  0  0  0  0
 82 83  1  0  0  0  0
 82 84  2  0  0  0  0
 84 85  1  0  0  0  0
 84 86  1  0  0  0  0
 86 87  1  0  0  0  0
 86 88  2  0  0  0  0
 88 89  1  0  0  0  0
 88 90  1  0  0  0  0
 90 91  1  0  0  0  0
M  END
> <ConfScore>
-0.677169 

> <SampleByParts>
10 7 6 92 4 1 14 17 20 23 25 26 27 29 30 33

$$$$
NPY1_MK299_12302016.pdb.B
  MOE2014           3D

 92 94  0  0  0  0  0  0  0  0999 V2000
  -54.3142  -16.8612   76.3241 C   0  0  0  1  0  0  0  0  0  0  0  0
  -55.1862  -17.4059   75.9512 H   0  0  0  1  0  0  0  0  0  0  0  0
  -54.4752  -16.6487   77.3862 H   0  0  0  1  0  0  0  0  0  0  0  0
  -54.2107  -15.5797   75.6436 N   0  0  0  1  0  0  0  0  0  0  0  0
  -53.2889  -15.1687   75.5554 H   0  0  0  1  0  0  0  0  0  0  0  0
  -55.2020  -14.8183   75.0862 C   0  0  0  1  0  0  0  0  0  0  0  0
  -54.7957  -13.5063   74.4431 C   0  0  0  1  0  0  0  0  0  0  0  0
  -55.3545  -13.3886   73.5084 H   0  0  0  1  0  0  0  0  0  0  0  0
  -53.7274  -13.5398   74.2072 H   0  0  0  1  0  0  0  0  0  0  0  0
  -55.0689  -12.3121   75.3399 C   0  0  0  1  0  0  0  0  0  0  0  0
  -54.7519  -11.3859   74.8506 H   0  0  0  1  0  0  0  0  0  0  0  0
  -54.5267  -12.4032   76.2853 H   0  0  0  1  0  0  0  0  0  0  0  0
  -56.1357  -12.2293   75.5716 H   0  0  0  1  0  0  0  0  0  0  0  0
  -53.0406  -17.6753   76.1335 C   0  0  0  1  0  0  0  0  0  0  0  0
  -52.1931  -17.0898   76.5058 H   0  0  0  1  0  0  0  0  0  0  0  0
  -53.0821  -18.5795   76.7541 H   0  0  0  1  0  0  0  0  0  0  0  0
  -52.8106  -18.0702   74.6676 C   0  0  0  1  0  0  0  0  0  0  0  0
  -53.6582  -18.6530   74.3069 H   0  0  0  1  0  0  0  0  0  0  0  0
  -52.7098  -17.1659   74.0675 H   0  0  0  1  0  0  0  0  0  0  0  0
  -51.5136  -18.9201   74.5271 C   0  0  0  1  0  0  0  0  0  0  0  0
  -51.5977  -19.8178   75.1397 H   0  0  0  1  0  0  0  0  0  0  0  0
  -50.6560  -18.3340   74.8572 H   0  0  0  1  0  0  0  0  0  0  0  0
  -51.3372  -19.2991   73.1251 N   0  0  0  1  0  0  0  0  0  0  0  0
  -52.0427  -18.9742   72.4796 H   0  0  0  1  0  0  0  0  0  0  0  0
  -50.2934  -20.0658   72.5771 C   0  0  0  1  0  0  0  0  0  0  0  0
  -49.4082  -20.5320   73.3138 O   0  0  0  1  0  0  0  0  0  0  0  0
  -50.4600  -20.2550   71.1740 N   0  0  0  1  0  0  0  0  0  0  0  0
  -51.2943  -19.8326   70.7923 H   0  0  0  1  0  0  0  0  0  0  0  0
  -49.6900  -20.9060   70.2590 C   0  0  0  1  0  0  0  0  0  0  0  0
  -50.2570  -20.8250   69.0000 N   0  0  0  1  0  0  0  0  0  0  0  0
  -49.8842  -21.3783   68.2417 H   0  0  0  1  0  0  0  0  0  0  0  0
  -51.0438  -20.2125   68.8389 H   0  0  0  1  0  0  0  0  0  0  0  0
  -48.6290  -21.7900   70.2920 N   0  0  0  1  0  0  0  0  0  0  0  0
  -47.7070  -22.1200   71.3230 C   0  0  0  1  0  0  0  0  0  0  0  0
  -48.1435  -21.9395   72.3054 H   0  0  0  1  0  0  0  0  0  0  0  0
  -47.3992  -23.1630   71.2482 H   0  0  0  1  0  0  0  0  0  0  0  0
  -46.5220  -21.1840   71.0740 C   0  0  0  1  0  0  0  0  0  0  0  0
  -46.9258  -20.2178   70.7716 H   0  0  0  1  0  0  0  0  0  0  0  0
  -45.9869  -21.0750   72.0173 H   0  0  0  1  0  0  0  0  0  0  0  0
  -45.4860  -21.6160   69.9960 C   0  0  0  1  0  0  0  0  0  0  0  0
  -45.9831  -21.6765   69.0278 H   0  0  0  1  0  0  0  0  0  0  0  0
  -45.0840  -22.5942   70.2597 H   0  0  0  1  0  0  0  0  0  0  0  0
  -44.2930  -20.5720   69.9030 C   0  0  0  1  0  0  0  0  0  0  0  0
  -43.4175  -20.9189   69.3542 H   0  0  0  1  0  0  0  0  0  0  0  0
  -43.9430  -20.2610   71.3950 C   0  0  0  1  0  0  0  0  0  0  0  0
  -43.2680  -21.2970   72.0370 N   0  0  0  1  0  0  0  0  0  0  0  0
  -42.9631  -22.0791   71.4753 H   0  0  0  1  0  0  0  0  0  0  0  0
  -42.9760  -21.3290   73.4430 C   0  0  0  1  0  0  0  0  0  0  0  0
  -42.1220  -21.9707   73.6596 H   0  0  0  1  0  0  0  0  0  0  0  0
  -42.7882  -20.3295   73.8353 H   0  0  0  1  0  0  0  0  0  0  0  0
  -44.2750  -21.9160   74.0000 C   0  0  0  1  0  0  0  0  0  0  0  0
  -44.6710  -23.2570   73.6750 C   0  0  0  1  0  0  0  0  0  0  0  0
  -44.0095  -23.8778   73.0890 H   0  0  0  1  0  0  0  0  0  0  0  0
  -45.9140  -23.7810   74.1090 C   0  0  0  1  0  0  0  0  0  0  0  0
  -46.2001  -24.7938   73.8667 H   0  0  0  1  0  0  0  0  0  0  0  0
  -46.7720  -22.9500   74.8660 C   0  0  0  1  0  0  0  0  0  0  0  0
  -48.0010  -23.3600   75.3380 O   0  0  0  1  0  0  0  0  0  0  0  0
  -48.4837  -22.6994   75.8401 H   0  0  0  1  0  0  0  0  0  0  0  0
  -46.3920  -21.6040   75.1900 C   0  0  0  1  0  0  0  0  0  0  0  0
  -47.0635  -20.9775   75.7583 H   0  0  0  1  0  0  0  0  0  0  0  0
  -45.1510  -21.0990   74.7710 C   0  0  0  1  0  0  0  0  0  0  0  0
  -44.8607  -20.0922   75.0329 H   0  0  0  1  0  0  0  0  0  0  0  0
  -44.2390  -19.1780   71.9410 O   0  0  0  1  0  0  0  0  0  0  0  0
  -44.8310  -19.3810   69.2410 N   0  0  0  1  0  0  0  0  0  0  0  0
  -45.3418  -18.7187   69.8071 H   0  0  0  1  0  0  0  0  0  0  0  0
  -44.6870  -19.1000   67.8890 C   0  0  0  1  0  0  0  0  0  0  0  0
  -44.0790  -19.8190   67.1090 O   0  0  0  1  0  0  0  0  0  0  0  0
  -45.4070  -17.8340   67.4640 C   0  0  0  1  0  0  0  0  0  0  0  0
  -45.5191  -17.1446   68.3008 H   0  0  0  1  0  0  0  0  0  0  0  0
  -46.7920  -18.2790   66.9880 C   0  0  0  1  0  0  0  0  0  0  0  0
  -47.9390  -17.9030   67.6910 C   0  0  0  1  0  0  0  0  0  0  0  0
  -47.8686  -17.2440   68.5437 H   0  0  0  1  0  0  0  0  0  0  0  0
  -49.1880  -18.3970   67.2700 C   0  0  0  1  0  0  0  0  0  0  0  0
  -50.0790  -18.1102   67.8088 H   0  0  0  1  0  0  0  0  0  0  0  0
  -46.9160  -19.1540   65.8530 C   0  0  0  1  0  0  0  0  0  0  0  0
  -46.0285  -19.4383   65.3071 H   0  0  0  1  0  0  0  0  0  0  0  0
  -48.1600  -19.6460   65.4390 C   0  0  0  1  0  0  0  0  0  0  0  0
  -48.2363  -20.3059   64.5875 H   0  0  0  1  0  0  0  0  0  0  0  0
  -49.3010  -19.2650   66.1510 C   0  0  0  1  0  0  0  0  0  0  0  0
  -50.2712  -19.6315   65.8496 H   0  0  0  1  0  0  0  0  0  0  0  0
  -44.6090  -16.9290   66.5050 C   0  0  0  1  0  0  0  0  0  0  0  0
  -43.2450  -16.6910   66.7460 C   0  0  0  1  0  0  0  0  0  0  0  0
  -42.7509  -17.1929   67.5647 H   0  0  0  1  0  0  0  0  0  0  0  0
  -42.5140  -15.8010   65.9270 C   0  0  0  1  0  0  0  0  0  0  0  0
  -41.4684  -15.6253   66.1325 H   0  0  0  1  0  0  0  0  0  0  0  0
  -43.1280  -15.1420   64.8500 C   0  0  0  1  0  0  0  0  0  0  0  0
  -42.5627  -14.4605   64.2316 H   0  0  0  1  0  0  0  0  0  0  0  0
  -44.4780  -15.3790   64.5890 C   0  0  0  1  0  0  0  0  0  0  0  0
  -44.9601  -14.8861   63.7577 H   0  0  0  1  0  0  0  0  0  0  0  0
  -45.2150  -16.2600   65.4070 C   0  0  0  1  0  0  0  0  0  0  0  0
  -46.2603  -16.4297   65.1951 H   0  0  0  1  0  0  0  0  0  0  0  0
  -56.3620  -15.2268   75.1179 O   0  0  0  1  0  0  0  0  0  0  0  0
  1  2  1  0  0  0  0
  1  3  1  0  0  0  0
  1  4  1  0  0  0  0
  1 14  1  0  0  0  0
  4  5  1  0  0  0  0
  4  6  1  0  0  0  0
  6  7  1  0  0  0  0
  6 92  2  0  0  0  0
  7  8  1  0  0  0  0
  7  9  1  0  0  0  0
  7 10  1  0  0  0  0
 10 11  1  0  0  0  0
 10 12  1  0  0  0  0
 10 13  1  0  0  0  0
 14 15  1  0  0  0  0
 14 16  1  0  0  0  0
 14 17  1  0  0  0  0
 17 18  1  0  0  0  0
 17 19  1  0  0  0  0
 17 20  1  0  0  0  0
 20 21  1  0  0  0  0
 20 22  1  0  0  0  0
 20 23  1  0  0  0  0
 23 24  1  0  0  0  0
 23 25  1  0  0  0  0
 25 26  2  0  0  0  0
 25 27  1  0  0  0  0
 27 28  1  0  0  0  0
 27 29  1  0  0  0  0
 29 30  1  0  0  0  0
 29 33  2  0  0  0  0
 30 31  1  0  0  0  0
 30 32  1  0  0  0  0
 33 34  1  0  0  0  0
 34 35  1  0  0  0  0
 34 36  1  0  0  0  0
 34 37  1  0  0  0  0
 37 38  1  0  0  0  0
 37 39  1  0  0  0  0
 37 40  1  0  0  0  0
 40 41  1  0  0  0  0
 40 42  1  0  0  0  0
 40 43  1  0  0  0  0
 43 44  1  0  0  0  0
 43 45  1  0  0  0  0
 43 64  1  0  0  0  0
 45 46  1  0  0  0  0
 45 63  2  0  0  0  0
 46 47  1  0  0  0  0
 46 48  1  0  0  0  0
 48 49  1  0  0  0  0
 48 50  1  0  0  0  0
 48 51  1  0  0  0  0
 51 52  1  0  0  0  0
 51 61  2  0  0  0  0
 52 53  1  0  0  0  0
 52 54  2  0  0  0  0
 54 55  1  0  0  0  0
 54 56  1  0  0  0  0
 56 57  1  0  0  0  0
 56 59  2  0  0  0  0
 57 58  1  0  0  0  0
 59 60  1  0  0  0  0
 59 61  1  0  0  0  0
 61 62  1  0  0  0  0
 64 65  1  0  0  0  0
 64 66  1  0  0  0  0
 66 67  2  0  0  0  0
 66 68  1  0  0  0  0
 68 69  1  0  0  0  0
 68 70  1  0  0  0  0
 68 81  1  0  0  0  0
 70 71  2  0  0  0  0
 70 75  1  0  0  0  0
 71 72  1  0  0  0  0
 71 73  1  0  0  0  0
 73 74  1  0  0  0  0
 73 79  2  0  0  0  0
 75 76  1  0  0  0  0
 75 77  2  0  0  0  0
 77 78  1  0  0  0  0
 77 79  1  0  0  0  0
 79 80  1  0  0  0  0
 81 82  1  0  0  0  0
 81 90  2  0  0  0  0
 82 83  1  0  0  0  0
 82 84  2  0  0  0  0
 84 85  1  0  0  0  0
 84 86  1  0  0  0  0
 86 87  1  0  0  0  0
 86 88  2  0  0  0  0
 88 89  1  0  0  0  0
 88 90  1  0  0  0  0
 90 91  1  0  0  0  0
M  END
> <ConfScore>
-0.677169 

> <SampleByParts>
10 7 6 92 4 1 14 17 20 23 25 26 27 29 30 33

$$$$
NPY1_MK299_12302016.pdb.B
  MOE2014           3D

 92 94  0  0  0  0  0  0  0  0999 V2000
  -54.3943  -17.0062   76.3573 C   0  0  0  1  0  0  0  0  0  0  0  0
  -55.2596  -17.6043   76.0576 H   0  0  0  1  0  0  0  0  0  0  0  0
  -54.5172  -16.7352   77.4111 H   0  0  0  1  0  0  0  0  0  0  0  0
  -54.3709  -15.7658   75.5978 N   0  0  0  1  0  0  0  0  0  0  0  0
  -53.6389  -15.0989   75.8114 H   0  0  0  1  0  0  0  0  0  0  0  0
  -55.2160  -15.3476   74.6058 C   0  0  0  1  0  0  0  0  0  0  0  0
  -54.9599  -13.9803   74.0017 C   0  0  0  1  0  0  0  0  0  0  0  0
  -54.7778  -14.1019   72.9285 H   0  0  0  1  0  0  0  0  0  0  0  0
  -54.0638  -13.5496   74.4594 H   0  0  0  1  0  0  0  0  0  0  0  0
  -56.1263  -13.0297   74.2038 C   0  0  0  1  0  0  0  0  0  0  0  0
  -55.9021  -12.0511   73.7683 H   0  0  0  1  0  0  0  0  0  0  0  0
  -56.3356  -12.8912   75.2683 H   0  0  0  1  0  0  0  0  0  0  0  0
  -57.0353  -13.4151   73.7306 H   0  0  0  1  0  0  0  0  0  0  0  0
  -53.0992  -17.7832   76.1572 C   0  0  0  1  0  0  0  0  0  0  0  0
  -52.2660  -17.1727   76.5218 H   0  0  0  1  0  0  0  0  0  0  0  0
  -53.1093  -18.6873   76.7794 H   0  0  0  1  0  0  0  0  0  0  0  0
  -52.8698  -18.1737   74.6900 C   0  0  0  1  0  0  0  0  0  0  0  0
  -53.6943  -18.7961   74.3424 H   0  0  0  1  0  0  0  0  0  0  0  0
  -52.8180  -17.2683   74.0853 H   0  0  0  1  0  0  0  0  0  0  0  0
  -51.5372  -18.9640   74.5362 C   0  0  0  1  0  0  0  0  0  0  0  0
  -51.5793  -19.8709   75.1395 H   0  0  0  1  0  0  0  0  0  0  0  0
  -50.7050  -18.3442   74.8699 H   0  0  0  1  0  0  0  0  0  0  0  0
  -51.3493  -19.3199   73.1296 N   0  0  0  1  0  0  0  0  0  0  0  0
  -52.0709  -19.0197   72.4900 H   0  0  0  1  0  0  0  0  0  0  0  0
  -50.2748  -20.0341   72.5701 C   0  0  0  1  0  0  0  0  0  0  0  0
  -49.3487  -20.4367   73.2938 O   0  0  0  1  0  0  0  0  0  0  0  0
  -50.4600  -20.2550   71.1740 N   0  0  0  1  0  0  0  0  0  0  0  0
  -51.3102  -19.8599   70.7983 H   0  0  0  1  0  0  0  0  0  0  0  0
  -49.6900  -20.9060   70.2590 C   0  0  0  1  0  0  0  0  0  0  0  0
  -50.2570  -20.8250   69.0000 N   0  0  0  1  0  0  0  0  0  0  0  0
  -49.8842  -21.3783   68.2417 H   0  0  0  1  0  0  0  0  0  0  0  0
  -51.0438  -20.2125   68.8389 H   0  0  0  1  0  0  0  0  0  0  0  0
  -48.6290  -21.7900   70.2920 N   0  0  0  1  0  0  0  0  0  0  0  0
  -47.7070  -22.1200   71.3230 C   0  0  0  1  0  0  0  0  0  0  0  0
  -48.1435  -21.9395   72.3054 H   0  0  0  1  0  0  0  0  0  0  0  0
  -47.3992  -23.1630   71.2482 H   0  0  0  1  0  0  0  0  0  0  0  0
  -46.5220  -21.1840   71.0740 C   0  0  0  1  0  0  0  0  0  0  0  0
  -46.9258  -20.2178   70.7716 H   0  0  0  1  0  0  0  0  0  0  0  0
  -45.9869  -21.0750   72.0173 H   0  0  0  1  0  0  0  0  0  0  0  0
  -45.4860  -21.6160   69.9960 C   0  0  0  1  0  0  0  0  0  0  0  0
  -45.9831  -21.6765   69.0278 H   0  0  0  1  0  0  0  0  0  0  0  0
  -45.0840  -22.5942   70.2597 H   0  0  0  1  0  0  0  0  0  0  0  0
  -44.2930  -20.5720   69.9030 C   0  0  0  1  0  0  0  0  0  0  0  0
  -43.4175  -20.9189   69.3542 H   0  0  0  1  0  0  0  0  0  0  0  0
  -43.9430  -20.2610   71.3950 C   0  0  0  1  0  0  0  0  0  0  0  0
  -43.2680  -21.2970   72.0370 N   0  0  0  1  0  0  0  0  0  0  0  0
  -42.9631  -22.0791   71.4753 H   0  0  0  1  0  0  0  0  0  0  0  0
  -42.9760  -21.3290   73.4430 C   0  0  0  1  0  0  0  0  0  0  0  0
  -42.1220  -21.9707   73.6596 H   0  0  0  1  0  0  0  0  0  0  0  0
  -42.7882  -20.3295   73.8353 H   0  0  0  1  0  0  0  0  0  0  0  0
  -44.2750  -21.9160   74.0000 C   0  0  0  1  0  0  0  0  0  0  0  0
  -44.6710  -23.2570   73.6750 C   0  0  0  1  0  0  0  0  0  0  0  0
  -44.0095  -23.8778   73.0890 H   0  0  0  1  0  0  0  0  0  0  0  0
  -45.9140  -23.7810   74.1090 C   0  0  0  1  0  0  0  0  0  0  0  0
  -46.2001  -24.7938   73.8667 H   0  0  0  1  0  0  0  0  0  0  0  0
  -46.7720  -22.9500   74.8660 C   0  0  0  1  0  0  0  0  0  0  0  0
  -48.0010  -23.3600   75.3380 O   0  0  0  1  0  0  0  0  0  0  0  0
  -48.4837  -22.6994   75.8401 H   0  0  0  1  0  0  0  0  0  0  0  0
  -46.3920  -21.6040   75.1900 C   0  0  0  1  0  0  0  0  0  0  0  0
  -47.0635  -20.9775   75.7583 H   0  0  0  1  0  0  0  0  0  0  0  0
  -45.1510  -21.0990   74.7710 C   0  0  0  1  0  0  0  0  0  0  0  0
  -44.8607  -20.0922   75.0329 H   0  0  0  1  0  0  0  0  0  0  0  0
  -44.2390  -19.1780   71.9410 O   0  0  0  1  0  0  0  0  0  0  0  0
  -44.8310  -19.3810   69.2410 N   0  0  0  1  0  0  0  0  0  0  0  0
  -45.3418  -18.7187   69.8071 H   0  0  0  1  0  0  0  0  0  0  0  0
  -44.6870  -19.1000   67.8890 C   0  0  0  1  0  0  0  0  0  0  0  0
  -44.0790  -19.8190   67.1090 O   0  0  0  1  0  0  0  0  0  0  0  0
  -45.4070  -17.8340   67.4640 C   0  0  0  1  0  0  0  0  0  0  0  0
  -45.5191  -17.1446   68.3008 H   0  0  0  1  0  0  0  0  0  0  0  0
  -46.7920  -18.2790   66.9880 C   0  0  0  1  0  0  0  0  0  0  0  0
  -47.9390  -17.9030   67.6910 C   0  0  0  1  0  0  0  0  0  0  0  0
  -47.8686  -17.2440   68.5437 H   0  0  0  1  0  0  0  0  0  0  0  0
  -49.1880  -18.3970   67.2700 C   0  0  0  1  0  0  0  0  0  0  0  0
  -50.0790  -18.1102   67.8088 H   0  0  0  1  0  0  0  0  0  0  0  0
  -46.9160  -19.1540   65.8530 C   0  0  0  1  0  0  0  0  0  0  0  0
  -46.0285  -19.4383   65.3071 H   0  0  0  1  0  0  0  0  0  0  0  0
  -48.1600  -19.6460   65.4390 C   0  0  0  1  0  0  0  0  0  0  0  0
  -48.2363  -20.3059   64.5875 H   0  0  0  1  0  0  0  0  0  0  0  0
  -49.3010  -19.2650   66.1510 C   0  0  0  1  0  0  0  0  0  0  0  0
  -50.2712  -19.6315   65.8496 H   0  0  0  1  0  0  0  0  0  0  0  0
  -44.6090  -16.9290   66.5050 C   0  0  0  1  0  0  0  0  0  0  0  0
  -43.2450  -16.6910   66.7460 C   0  0  0  1  0  0  0  0  0  0  0  0
  -42.7509  -17.1929   67.5647 H   0  0  0  1  0  0  0  0  0  0  0  0
  -42.5140  -15.8010   65.9270 C   0  0  0  1  0  0  0  0  0  0  0  0
  -41.4684  -15.6253   66.1325 H   0  0  0  1  0  0  0  0  0  0  0  0
  -43.1280  -15.1420   64.8500 C   0  0  0  1  0  0  0  0  0  0  0  0
  -42.5627  -14.4605   64.2316 H   0  0  0  1  0  0  0  0  0  0  0  0
  -44.4780  -15.3790   64.5890 C   0  0  0  1  0  0  0  0  0  0  0  0
  -44.9601  -14.8861   63.7577 H   0  0  0  1  0  0  0  0  0  0  0  0
  -45.2150  -16.2600   65.4070 C   0  0  0  1  0  0  0  0  0  0  0  0
  -46.2603  -16.4297   65.1951 H   0  0  0  1  0  0  0  0  0  0  0  0
  -56.1271  -16.0895   74.2412 O   0  0  0  1  0  0  0  0  0  0  0  0
  1  2  1  0  0  0  0
  1  3  1  0  0  0  0
  1  4  1  0  0  0  0
  1 14  1  0  0  0  0
  4  5  1  0  0  0  0
  4  6  1  0  0  0  0
  6  7  1  0  0  0  0
  6 92  2  0  0  0  0
  7  8  1  0  0  0  0
  7  9  1  0  0  0  0
  7 10  1  0  0  0  0
 10 11  1  0  0  0  0
 10 12  1  0  0  0  0
 10 13  1  0  0  0  0
 14 15  1  0  0  0  0
 14 16  1  0  0  0  0
 14 17  1  0  0  0  0
 17 18  1  0  0  0  0
 17 19  1  0  0  0  0
 17 20  1  0  0  0  0
 20 21  1  0  0  0  0
 20 22  1  0  0  0  0
 20 23  1  0  0  0  0
 23 24  1  0  0  0  0
 23 25  1  0  0  0  0
 25 26  2  0  0  0  0
 25 27  1  0  0  0  0
 27 28  1  0  0  0  0
 27 29  1  0  0  0  0
 29 30  1  0  0  0  0
 29 33  2  0  0  0  0
 30 31  1  0  0  0  0
 30 32  1  0  0  0  0
 33 34  1  0  0  0  0
 34 35  1  0  0  0  0
 34 36  1  0  0  0  0
 34 37  1  0  0  0  0
 37 38  1  0  0  0  0
 37 39  1  0  0  0  0
 37 40  1  0  0  0  0
 40 41  1  0  0  0  0
 40 42  1  0  0  0  0
 40 43  1  0  0  0  0
 43 44  1  0  0  0  0
 43 45  1  0  0  0  0
 43 64  1  0  0  0  0
 45 46  1  0  0  0  0
 45 63  2  0  0  0  0
 46 47  1  0  0  0  0
 46 48  1  0  0  0  0
 48 49  1  0  0  0  0
 48 50  1  0  0  0  0
 48 51  1  0  0  0  0
 51 52  1  0  0  0  0
 51 61  2  0  0  0  0
 52 53  1  0  0  0  0
 52 54  2  0  0  0  0
 54 55  1  0  0  0  0
 54 56  1  0  0  0  0
 56 57  1  0  0  0  0
 56 59  2  0  0  0  0
 57 58  1  0  0  0  0
 59 60  1  0  0  0  0
 59 61  1  0  0  0  0
 61 62  1  0  0  0  0
 64 65  1  0  0  0  0
 64 66  1  0  0  0  0
 66 67  2  0  0  0  0
 66 68  1  0  0  0  0
 68 69  1  0  0  0  0
 68 70  1  0  0  0  0
 68 81  1  0  0  0  0
 70 71  2  0  0  0  0
 70 75  1  0  0  0  0
 71 72  1  0  0  0  0
 71 73  1  0  0  0  0
 73 74  1  0  0  0  0
 73 79  2  0  0  0  0
 75 76  1  0  0  0  0
 75 77  2  0  0  0  0
 77 78  1  0  0  0  0
 77 79  1  0  0  0  0
 79 80  1  0  0  0  0
 81 82  1  0  0  0  0
 81 90  2  0  0  0  0
 82 83  1  0  0  0  0
 82 84  2  0  0  0  0
 84 85  1  0  0  0  0
 84 86  1  0  0  0  0
 86 87  1  0  0  0  0
 86 88  2  0  0  0  0
 88 89  1  0  0  0  0
 88 90  1  0  0  0  0
 90 91  1  0  0  0  0
M  END
> <ConfScore>
-0.675727 

> <SampleByParts>
10 7 6 92 4 1 14 17 20 23 25 26 27 29 30 33

$$$$
NPY1_MK299_12302016.pdb.B
  MOE2014           3D

 92 94  0  0  0  0  0  0  0  0999 V2000
  -54.4568  -17.1437   76.3949 C   0  0  0  1  0  0  0  0  0  0  0  0
  -55.3373  -17.6797   76.0291 H   0  0  0  1  0  0  0  0  0  0  0  0
  -54.6079  -16.9277   77.4578 H   0  0  0  1  0  0  0  0  0  0  0  0
  -54.3447  -15.8645   75.7115 N   0  0  0  1  0  0  0  0  0  0  0  0
  -53.5724  -15.2614   75.9689 H   0  0  0  1  0  0  0  0  0  0  0  0
  -55.1510  -15.3328   74.7418 C   0  0  0  1  0  0  0  0  0  0  0  0
  -54.7780  -13.9681   74.1954 C   0  0  0  1  0  0  0  0  0  0  0  0
  -54.3786  -14.0951   73.1834 H   0  0  0  1  0  0  0  0  0  0  0  0
  -53.9960  -13.5326   74.8253 H   0  0  0  1  0  0  0  0  0  0  0  0
  -55.9624  -13.0195   74.1473 C   0  0  0  1  0  0  0  0  0  0  0  0
  -55.6547  -12.0427   73.7615 H   0  0  0  1  0  0  0  0  0  0  0  0
  -56.3867  -12.8758   75.1450 H   0  0  0  1  0  0  0  0  0  0  0  0
  -56.7538  -13.4099   73.4992 H   0  0  0  1  0  0  0  0  0  0  0  0
  -53.1933  -17.9715   76.1964 C   0  0  0  1  0  0  0  0  0  0  0  0
  -52.3443  -17.4171   76.6105 H   0  0  0  1  0  0  0  0  0  0  0  0
  -53.2633  -18.8999   76.7774 H   0  0  0  1  0  0  0  0  0  0  0  0
  -52.9388  -18.3089   74.7203 C   0  0  0  1  0  0  0  0  0  0  0  0
  -53.7551  -18.9214   74.3375 H   0  0  0  1  0  0  0  0  0  0  0  0
  -52.8809  -17.3825   74.1488 H   0  0  0  1  0  0  0  0  0  0  0  0
  -51.6007  -19.0887   74.5603 C   0  0  0  1  0  0  0  0  0  0  0  0
  -51.6489  -20.0166   75.1303 H   0  0  0  1  0  0  0  0  0  0  0  0
  -50.7765  -18.4782   74.9291 H   0  0  0  1  0  0  0  0  0  0  0  0
  -51.3888  -19.3939   73.1452 N   0  0  0  1  0  0  0  0  0  0  0  0
  -52.1162  -19.1012   72.5086 H   0  0  0  1  0  0  0  0  0  0  0  0
  -50.2840  -20.0500   72.5737 C   0  0  0  1  0  0  0  0  0  0  0  0
  -49.3405  -20.4234   73.2906 O   0  0  0  1  0  0  0  0  0  0  0  0
  -50.4600  -20.2550   71.1740 N   0  0  0  1  0  0  0  0  0  0  0  0
  -51.3023  -19.8462   70.7952 H   0  0  0  1  0  0  0  0  0  0  0  0
  -49.6900  -20.9060   70.2590 C   0  0  0  1  0  0  0  0  0  0  0  0
  -50.2570  -20.8250   69.0000 N   0  0  0  1  0  0  0  0  0  0  0  0
  -49.8842  -21.3783   68.2417 H   0  0  0  1  0  0  0  0  0  0  0  0
  -51.0438  -20.2125   68.8389 H   0  0  0  1  0  0  0  0  0  0  0  0
  -48.6290  -21.7900   70.2920 N   0  0  0  1  0  0  0  0  0  0  0  0
  -47.7070  -22.1200   71.3230 C   0  0  0  1  0  0  0  0  0  0  0  0
  -48.1435  -21.9395   72.3054 H   0  0  0  1  0  0  0  0  0  0  0  0
  -47.3992  -23.1630   71.2482 H   0  0  0  1  0  0  0  0  0  0  0  0
  -46.5220  -21.1840   71.0740 C   0  0  0  1  0  0  0  0  0  0  0  0
  -46.9258  -20.2178   70.7716 H   0  0  0  1  0  0  0  0  0  0  0  0
  -45.9869  -21.0750   72.0173 H   0  0  0  1  0  0  0  0  0  0  0  0
  -45.4860  -21.6160   69.9960 C   0  0  0  1  0  0  0  0  0  0  0  0
  -45.9831  -21.6765   69.0278 H   0  0  0  1  0  0  0  0  0  0  0  0
  -45.0840  -22.5942   70.2597 H   0  0  0  1  0  0  0  0  0  0  0  0
  -44.2930  -20.5720   69.9030 C   0  0  0  1  0  0  0  0  0  0  0  0
  -43.4175  -20.9189   69.3542 H   0  0  0  1  0  0  0  0  0  0  0  0
  -43.9430  -20.2610   71.3950 C   0  0  0  1  0  0  0  0  0  0  0  0
  -43.2680  -21.2970   72.0370 N   0  0  0  1  0  0  0  0  0  0  0  0
  -42.9631  -22.0791   71.4753 H   0  0  0  1  0  0  0  0  0  0  0  0
  -42.9760  -21.3290   73.4430 C   0  0  0  1  0  0  0  0  0  0  0  0
  -42.1220  -21.9707   73.6596 H   0  0  0  1  0  0  0  0  0  0  0  0
  -42.7882  -20.3295   73.8353 H   0  0  0  1  0  0  0  0  0  0  0  0
  -44.2750  -21.9160   74.0000 C   0  0  0  1  0  0  0  0  0  0  0  0
  -44.6710  -23.2570   73.6750 C   0  0  0  1  0  0  0  0  0  0  0  0
  -44.0095  -23.8778   73.0890 H   0  0  0  1  0  0  0  0  0  0  0  0
  -45.9140  -23.7810   74.1090 C   0  0  0  1  0  0  0  0  0  0  0  0
  -46.2001  -24.7938   73.8667 H   0  0  0  1  0  0  0  0  0  0  0  0
  -46.7720  -22.9500   74.8660 C   0  0  0  1  0  0  0  0  0  0  0  0
  -48.0010  -23.3600   75.3380 O   0  0  0  1  0  0  0  0  0  0  0  0
  -48.4837  -22.6994   75.8401 H   0  0  0  1  0  0  0  0  0  0  0  0
  -46.3920  -21.6040   75.1900 C   0  0  0  1  0  0  0  0  0  0  0  0
  -47.0635  -20.9775   75.7583 H   0  0  0  1  0  0  0  0  0  0  0  0
  -45.1510  -21.0990   74.7710 C   0  0  0  1  0  0  0  0  0  0  0  0
  -44.8607  -20.0922   75.0329 H   0  0  0  1  0  0  0  0  0  0  0  0
  -44.2390  -19.1780   71.9410 O   0  0  0  1  0  0  0  0  0  0  0  0
  -44.8310  -19.3810   69.2410 N   0  0  0  1  0  0  0  0  0  0  0  0
  -45.3418  -18.7187   69.8071 H   0  0  0  1  0  0  0  0  0  0  0  0
  -44.6870  -19.1000   67.8890 C   0  0  0  1  0  0  0  0  0  0  0  0
  -44.0790  -19.8190   67.1090 O   0  0  0  1  0  0  0  0  0  0  0  0
  -45.4070  -17.8340   67.4640 C   0  0  0  1  0  0  0  0  0  0  0  0
  -45.5191  -17.1446   68.3008 H   0  0  0  1  0  0  0  0  0  0  0  0
  -46.7920  -18.2790   66.9880 C   0  0  0  1  0  0  0  0  0  0  0  0
  -47.9390  -17.9030   67.6910 C   0  0  0  1  0  0  0  0  0  0  0  0
  -47.8686  -17.2440   68.5437 H   0  0  0  1  0  0  0  0  0  0  0  0
  -49.1880  -18.3970   67.2700 C   0  0  0  1  0  0  0  0  0  0  0  0
  -50.0790  -18.1102   67.8088 H   0  0  0  1  0  0  0  0  0  0  0  0
  -46.9160  -19.1540   65.8530 C   0  0  0  1  0  0  0  0  0  0  0  0
  -46.0285  -19.4383   65.3071 H   0  0  0  1  0  0  0  0  0  0  0  0
  -48.1600  -19.6460   65.4390 C   0  0  0  1  0  0  0  0  0  0  0  0
  -48.2363  -20.3059   64.5875 H   0  0  0  1  0  0  0  0  0  0  0  0
  -49.3010  -19.2650   66.1510 C   0  0  0  1  0  0  0  0  0  0  0  0
  -50.2712  -19.6315   65.8496 H   0  0  0  1  0  0  0  0  0  0  0  0
  -44.6090  -16.9290   66.5050 C   0  0  0  1  0  0  0  0  0  0  0  0
  -43.2450  -16.6910   66.7460 C   0  0  0  1  0  0  0  0  0  0  0  0
  -42.7509  -17.1929   67.5647 H   0  0  0  1  0  0  0  0  0  0  0  0
  -42.5140  -15.8010   65.9270 C   0  0  0  1  0  0  0  0  0  0  0  0
  -41.4684  -15.6253   66.1325 H   0  0  0  1  0  0  0  0  0  0  0  0
  -43.1280  -15.1420   64.8500 C   0  0  0  1  0  0  0  0  0  0  0  0
  -42.5627  -14.4605   64.2316 H   0  0  0  1  0  0  0  0  0  0  0  0
  -44.4780  -15.3790   64.5890 C   0  0  0  1  0  0  0  0  0  0  0  0
  -44.9601  -14.8861   63.7577 H   0  0  0  1  0  0  0  0  0  0  0  0
  -45.2150  -16.2600   65.4070 C   0  0  0  1  0  0  0  0  0  0  0  0
  -46.2603  -16.4297   65.1951 H   0  0  0  1  0  0  0  0  0  0  0  0
  -56.1230  -15.9770   74.3498 O   0  0  0  1  0  0  0  0  0  0  0  0
  1  2  1  0  0  0  0
  1  3  1  0  0  0  0
  1  4  1  0  0  0  0
  1 14  1  0  0  0  0
  4  5  1  0  0  0  0
  4  6  1  0  0  0  0
  6  7  1  0  0  0  0
  6 92  2  0  0  0  0
  7  8  1  0  0  0  0
  7  9  1  0  0  0  0
  7 10  1  0  0  0  0
 10 11  1  0  0  0  0
 10 12  1  0  0  0  0
 10 13  1  0  0  0  0
 14 15  1  0  0  0  0
 14 16  1  0  0  0  0
 14 17  1  0  0  0  0
 17 18  1  0  0  0  0
 17 19  1  0  0  0  0
 17 20  1  0  0  0  0
 20 21  1  0  0  0  0
 20 22  1  0  0  0  0
 20 23  1  0  0  0  0
 23 24  1  0  0  0  0
 23 25  1  0  0  0  0
 25 26  2  0  0  0  0
 25 27  1  0  0  0  0
 27 28  1  0  0  0  0
 27 29  1  0  0  0  0
 29 30  1  0  0  0  0
 29 33  2  0  0  0  0
 30 31  1  0  0  0  0
 30 32  1  0  0  0  0
 33 34  1  0  0  0  0
 34 35  1  0  0  0  0
 34 36  1  0  0  0  0
 34 37  1  0  0  0  0
 37 38  1  0  0  0  0
 37 39  1  0  0  0  0
 37 40  1  0  0  0  0
 40 41  1  0  0  0  0
 40 42  1  0  0  0  0
 40 43  1  0  0  0  0
 43 44  1  0  0  0  0
 43 45  1  0  0  0  0
 43 64  1  0  0  0  0
 45 46  1  0  0  0  0
 45 63  2  0  0  0  0
 46 47  1  0  0  0  0
 46 48  1  0  0  0  0
 48 49  1  0  0  0  0
 48 50  1  0  0  0  0
 48 51  1  0  0  0  0
 51 52  1  0  0  0  0
 51 61  2  0  0  0  0
 52 53  1  0  0  0  0
 52 54  2  0  0  0  0
 54 55  1  0  0  0  0
 54 56  1  0  0  0  0
 56 57  1  0  0  0  0
 56 59  2  0  0  0  0
 57 58  1  0  0  0  0
 59 60  1  0  0  0  0
 59 61  1  0  0  0  0
 61 62  1  0  0  0  0
 64 65  1  0  0  0  0
 64 66  1  0  0  0  0
 66 67  2  0  0  0  0
 66 68  1  0  0  0  0
 68 69  1  0  0  0  0
 68 70  1  0  0  0  0
 68 81  1  0  0  0  0
 70 71  2  0  0  0  0
 70 75  1  0  0  0  0
 71 72  1  0  0  0  0
 71 73  1  0  0  0  0
 73 74  1  0  0  0  0
 73 79  2  0  0  0  0
 75 76  1  0  0  0  0
 75 77  2  0  0  0  0
 77 78  1  0  0  0  0
 77 79  1  0  0  0  0
 79 80  1  0  0  0  0
 81 82  1  0  0  0  0
 81 90  2  0  0  0  0
 82 83  1  0  0  0  0
 82 84  2  0  0  0  0
 84 85  1  0  0  0  0
 84 86  1  0  0  0  0
 86 87  1  0  0  0  0
 86 88  2  0  0  0  0
 88 89  1  0  0  0  0
 88 90  1  0  0  0  0
 90 91  1  0  0  0  0
M  END
> <ConfScore>
-0.675727 

> <SampleByParts>
10 7 6 92 4 1 14 17 20 23 25 26 27 29 30 33

$$$$
NPY1_MK299_12302016.pdb.B
  MOE2014           3D

 92 94  0  0  0  0  0  0  0  0999 V2000
  -54.6519  -17.2862   76.3169 C   0  0  0  1  0  0  0  0  0  0  0  0
  -55.4945  -17.6061   75.6972 H   0  0  0  1  0  0  0  0  0  0  0  0
  -54.9824  -17.2771   77.3609 H   0  0  0  1  0  0  0  0  0  0  0  0
  -54.2837  -15.9213   75.9742 N   0  0  0  1  0  0  0  0  0  0  0  0
  -53.4710  -15.5258   76.4319 H   0  0  0  1  0  0  0  0  0  0  0  0
  -54.8883  -15.0603   75.0988 C   0  0  0  1  0  0  0  0  0  0  0  0
  -54.2903  -13.6737   74.9588 C   0  0  0  1  0  0  0  0  0  0  0  0
  -54.0028  -13.5221   73.9128 H   0  0  0  1  0  0  0  0  0  0  0  0
  -53.3908  -13.6083   75.5792 H   0  0  0  1  0  0  0  0  0  0  0  0
  -55.2590  -12.5802   75.3721 C   0  0  0  1  0  0  0  0  0  0  0  0
  -54.7907  -11.5963   75.2714 H   0  0  0  1  0  0  0  0  0  0  0  0
  -55.5684  -12.7075   76.4134 H   0  0  0  1  0  0  0  0  0  0  0  0
  -56.1599  -12.5962   74.7501 H   0  0  0  1  0  0  0  0  0  0  0  0
  -53.4627  -18.2228   76.1454 C   0  0  0  1  0  0  0  0  0  0  0  0
  -52.6395  -17.8597   76.7701 H   0  0  0  1  0  0  0  0  0  0  0  0
  -53.7177  -19.2197   76.5271 H   0  0  0  1  0  0  0  0  0  0  0  0
  -53.0102  -18.3348   74.6824 C   0  0  0  1  0  0  0  0  0  0  0  0
  -53.8353  -18.6976   74.0695 H   0  0  0  1  0  0  0  0  0  0  0  0
  -52.7010  -17.3508   74.3297 H   0  0  0  1  0  0  0  0  0  0  0  0
  -51.8113  -19.3199   74.5545 C   0  0  0  1  0  0  0  0  0  0  0  0
  -52.0884  -20.2879   74.9722 H   0  0  0  1  0  0  0  0  0  0  0  0
  -50.9533  -18.9226   75.0968 H   0  0  0  1  0  0  0  0  0  0  0  0
  -51.4673  -19.4770   73.1412 N   0  0  0  1  0  0  0  0  0  0  0  0
  -52.0250  -18.9531   72.4821 H   0  0  0  1  0  0  0  0  0  0  0  0
  -50.4456  -20.2771   72.5993 C   0  0  0  1  0  0  0  0  0  0  0  0
  -49.7055  -20.9363   73.3484 O   0  0  0  1  0  0  0  0  0  0  0  0
  -50.4600  -20.2550   71.1740 N   0  0  0  1  0  0  0  0  0  0  0  0
  -51.1638  -19.6515   70.7732 H   0  0  0  1  0  0  0  0  0  0  0  0
  -49.6900  -20.9060   70.2590 C   0  0  0  1  0  0  0  0  0  0  0  0
  -50.2570  -20.8250   69.0000 N   0  0  0  1  0  0  0  0  0  0  0  0
  -49.8842  -21.3783   68.2417 H   0  0  0  1  0  0  0  0  0  0  0  0
  -51.0438  -20.2125   68.8389 H   0  0  0  1  0  0  0  0  0  0  0  0
  -48.6290  -21.7900   70.2920 N   0  0  0  1  0  0  0  0  0  0  0  0
  -47.7070  -22.1200   71.3230 C   0  0  0  1  0  0  0  0  0  0  0  0
  -48.1435  -21.9395   72.3054 H   0  0  0  1  0  0  0  0  0  0  0  0
  -47.3992  -23.1630   71.2482 H   0  0  0  1  0  0  0  0  0  0  0  0
  -46.5220  -21.1840   71.0740 C   0  0  0  1  0  0  0  0  0  0  0  0
  -46.9258  -20.2178   70.7716 H   0  0  0  1  0  0  0  0  0  0  0  0
  -45.9869  -21.0750   72.0173 H   0  0  0  1  0  0  0  0  0  0  0  0
  -45.4860  -21.6160   69.9960 C   0  0  0  1  0  0  0  0  0  0  0  0
  -45.9831  -21.6765   69.0278 H   0  0  0  1  0  0  0  0  0  0  0  0
  -45.0840  -22.5942   70.2597 H   0  0  0  1  0  0  0  0  0  0  0  0
  -44.2930  -20.5720   69.9030 C   0  0  0  1  0  0  0  0  0  0  0  0
  -43.4175  -20.9189   69.3542 H   0  0  0  1  0  0  0  0  0  0  0  0
  -43.9430  -20.2610   71.3950 C   0  0  0  1  0  0  0  0  0  0  0  0
  -43.2680  -21.2970   72.0370 N   0  0  0  1  0  0  0  0  0  0  0  0
  -42.9631  -22.0791   71.4753 H   0  0  0  1  0  0  0  0  0  0  0  0
  -42.9760  -21.3290   73.4430 C   0  0  0  1  0  0  0  0  0  0  0  0
  -42.1220  -21.9707   73.6596 H   0  0  0  1  0  0  0  0  0  0  0  0
  -42.7882  -20.3295   73.8353 H   0  0  0  1  0  0  0  0  0  0  0  0
  -44.2750  -21.9160   74.0000 C   0  0  0  1  0  0  0  0  0  0  0  0
  -44.6710  -23.2570   73.6750 C   0  0  0  1  0  0  0  0  0  0  0  0
  -44.0095  -23.8778   73.0890 H   0  0  0  1  0  0  0  0  0  0  0  0
  -45.9140  -23.7810   74.1090 C   0  0  0  1  0  0  0  0  0  0  0  0
  -46.2001  -24.7938   73.8667 H   0  0  0  1  0  0  0  0  0  0  0  0
  -46.7720  -22.9500   74.8660 C   0  0  0  1  0  0  0  0  0  0  0  0
  -48.0010  -23.3600   75.3380 O   0  0  0  1  0  0  0  0  0  0  0  0
  -48.4837  -22.6994   75.8401 H   0  0  0  1  0  0  0  0  0  0  0  0
  -46.3920  -21.6040   75.1900 C   0  0  0  1  0  0  0  0  0  0  0  0
  -47.0635  -20.9775   75.7583 H   0  0  0  1  0  0  0  0  0  0  0  0
  -45.1510  -21.0990   74.7710 C   0  0  0  1  0  0  0  0  0  0  0  0
  -44.8607  -20.0922   75.0329 H   0  0  0  1  0  0  0  0  0  0  0  0
  -44.2390  -19.1780   71.9410 O   0  0  0  1  0  0  0  0  0  0  0  0
  -44.8310  -19.3810   69.2410 N   0  0  0  1  0  0  0  0  0  0  0  0
  -45.3418  -18.7187   69.8071 H   0  0  0  1  0  0  0  0  0  0  0  0
  -44.6870  -19.1000   67.8890 C   0  0  0  1  0  0  0  0  0  0  0  0
  -44.0790  -19.8190   67.1090 O   0  0  0  1  0  0  0  0  0  0  0  0
  -45.4070  -17.8340   67.4640 C   0  0  0  1  0  0  0  0  0  0  0  0
  -45.5191  -17.1446   68.3008 H   0  0  0  1  0  0  0  0  0  0  0  0
  -46.7920  -18.2790   66.9880 C   0  0  0  1  0  0  0  0  0  0  0  0
  -47.9390  -17.9030   67.6910 C   0  0  0  1  0  0  0  0  0  0  0  0
  -47.8686  -17.2440   68.5437 H   0  0  0  1  0  0  0  0  0  0  0  0
  -49.1880  -18.3970   67.2700 C   0  0  0  1  0  0  0  0  0  0  0  0
  -50.0790  -18.1102   67.8088 H   0  0  0  1  0  0  0  0  0  0  0  0
  -46.9160  -19.1540   65.8530 C   0  0  0  1  0  0  0  0  0  0  0  0
  -46.0285  -19.4383   65.3071 H   0  0  0  1  0  0  0  0  0  0  0  0
  -48.1600  -19.6460   65.4390 C   0  0  0  1  0  0  0  0  0  0  0  0
  -48.2363  -20.3059   64.5875 H   0  0  0  1  0  0  0  0  0  0  0  0
  -49.3010  -19.2650   66.1510 C   0  0  0  1  0  0  0  0  0  0  0  0
  -50.2712  -19.6315   65.8496 H   0  0  0  1  0  0  0  0  0  0  0  0
  -44.6090  -16.9290   66.5050 C   0  0  0  1  0  0  0  0  0  0  0  0
  -43.2450  -16.6910   66.7460 C   0  0  0  1  0  0  0  0  0  0  0  0
  -42.7509  -17.1929   67.5647 H   0  0  0  1  0  0  0  0  0  0  0  0
  -42.5140  -15.8010   65.9270 C   0  0  0  1  0  0  0  0  0  0  0  0
  -41.4684  -15.6253   66.1325 H   0  0  0  1  0  0  0  0  0  0  0  0
  -43.1280  -15.1420   64.8500 C   0  0  0  1  0  0  0  0  0  0  0  0
  -42.5627  -14.4605   64.2316 H   0  0  0  1  0  0  0  0  0  0  0  0
  -44.4780  -15.3790   64.5890 C   0  0  0  1  0  0  0  0  0  0  0  0
  -44.9601  -14.8861   63.7577 H   0  0  0  1  0  0  0  0  0  0  0  0
  -45.2150  -16.2600   65.4070 C   0  0  0  1  0  0  0  0  0  0  0  0
  -46.2603  -16.4297   65.1951 H   0  0  0  1  0  0  0  0  0  0  0  0
  -55.8692  -15.4426   74.4621 O   0  0  0  1  0  0  0  0  0  0  0  0
  1  2  1  0  0  0  0
  1  3  1  0  0  0  0
  1  4  1  0  0  0  0
  1 14  1  0  0  0  0
  4  5  1  0  0  0  0
  4  6  1  0  0  0  0
  6  7  1  0  0  0  0
  6 92  2  0  0  0  0
  7  8  1  0  0  0  0
  7  9  1  0  0  0  0
  7 10  1  0  0  0  0
 10 11  1  0  0  0  0
 10 12  1  0  0  0  0
 10 13  1  0  0  0  0
 14 15  1  0  0  0  0
 14 16  1  0  0  0  0
 14 17  1  0  0  0  0
 17 18  1  0  0  0  0
 17 19  1  0  0  0  0
 17 20  1  0  0  0  0
 20 21  1  0  0  0  0
 20 22  1  0  0  0  0
 20 23  1  0  0  0  0
 23 24  1  0  0  0  0
 23 25  1  0  0  0  0
 25 26  2  0  0  0  0
 25 27  1  0  0  0  0
 27 28  1  0  0  0  0
 27 29  1  0  0  0  0
 29 30  1  0  0  0  0
 29 33  2  0  0  0  0
 30 31  1  0  0  0  0
 30 32  1  0  0  0  0
 33 34  1  0  0  0  0
 34 35  1  0  0  0  0
 34 36  1  0  0  0  0
 34 37  1  0  0  0  0
 37 38  1  0  0  0  0
 37 39  1  0  0  0  0
 37 40  1  0  0  0  0
 40 41  1  0  0  0  0
 40 42  1  0  0  0  0
 40 43  1  0  0  0  0
 43 44  1  0  0  0  0
 43 45  1  0  0  0  0
 43 64  1  0  0  0  0
 45 46  1  0  0  0  0
 45 63  2  0  0  0  0
 46 47  1  0  0  0  0
 46 48  1  0  0  0  0
 48 49  1  0  0  0  0
 48 50  1  0  0  0  0
 48 51  1  0  0  0  0
 51 52  1  0  0  0  0
 51 61  2  0  0  0  0
 52 53  1  0  0  0  0
 52 54  2  0  0  0  0
 54 55  1  0  0  0  0
 54 56  1  0  0  0  0
 56 57  1  0  0  0  0
 56 59  2  0  0  0  0
 57 58  1  0  0  0  0
 59 60  1  0  0  0  0
 59 61  1  0  0  0  0
 61 62  1  0  0  0  0
 64 65  1  0  0  0  0
 64 66  1  0  0  0  0
 66 67  2  0  0  0  0
 66 68  1  0  0  0  0
 68 69  1  0  0  0  0
 68 70  1  0  0  0  0
 68 81  1  0  0  0  0
 70 71  2  0  0  0  0
 70 75  1  0  0  0  0
 71 72  1  0  0  0  0
 71 73  1  0  0  0  0
 73 74  1  0  0  0  0
 73 79  2  0  0  0  0
 75 76  1  0  0  0  0
 75 77  2  0  0  0  0
 77 78  1  0  0  0  0
 77 79  1  0  0  0  0
 79 80  1  0  0  0  0
 81 82  1  0  0  0  0
 81 90  2  0  0  0  0
 82 83  1  0  0  0  0
 82 84  2  0  0  0  0
 84 85  1  0  0  0  0
 84 86  1  0  0  0  0
 86 87  1  0  0  0  0
 86 88  2  0  0  0  0
 88 89  1  0  0  0  0
 88 90  1  0  0  0  0
 90 91  1  0  0  0  0
M  END
> <ConfScore>
-0.675727 

> <SampleByParts>
10 7 6 92 4 1 14 17 20 23 25 26 27 29 30 33

$$$$
NPY1_MK299_12302016.pdb.B
  MOE2014           3D

 92 94  0  0  0  0  0  0  0  0999 V2000
  -54.7916  -16.6512   75.7734 C   0  0  0  1  0  0  0  0  0  0  0  0
  -54.8194  -17.5514   76.3940 H   0  0  0  1  0  0  0  0  0  0  0  0
  -53.9409  -16.0421   76.0966 H   0  0  0  1  0  0  0  0  0  0  0  0
  -55.9923  -15.8626   76.0024 N   0  0  0  1  0  0  0  0  0  0  0  0
  -56.5737  -15.6500   75.2005 H   0  0  0  1  0  0  0  0  0  0  0  0
  -56.4722  -15.3457   77.1753 C   0  0  0  1  0  0  0  0  0  0  0  0
  -57.7394  -14.5156   77.1049 C   0  0  0  1  0  0  0  0  0  0  0  0
  -58.3535  -14.8863   76.2771 H   0  0  0  1  0  0  0  0  0  0  0  0
  -57.4732  -13.4738   76.9003 H   0  0  0  1  0  0  0  0  0  0  0  0
  -58.5459  -14.5788   78.3896 C   0  0  0  1  0  0  0  0  0  0  0  0
  -59.4442  -13.9592   78.3082 H   0  0  0  1  0  0  0  0  0  0  0  0
  -57.9565  -14.2181   79.2373 H   0  0  0  1  0  0  0  0  0  0  0  0
  -58.8567  -15.6053   78.6097 H   0  0  0  1  0  0  0  0  0  0  0  0
  -54.6572  -17.0096   74.2988 C   0  0  0  1  0  0  0  0  0  0  0  0
  -55.5547  -17.5560   73.9893 H   0  0  0  1  0  0  0  0  0  0  0  0
  -54.6351  -16.0935   73.6950 H   0  0  0  1  0  0  0  0  0  0  0  0
  -53.4010  -17.8439   74.0099 C   0  0  0  1  0  0  0  0  0  0  0  0
  -52.5129  -17.2844   74.3038 H   0  0  0  1  0  0  0  0  0  0  0  0
  -53.4513  -18.7714   74.5803 H   0  0  0  1  0  0  0  0  0  0  0  0
  -53.3075  -18.1848   72.4935 C   0  0  0  1  0  0  0  0  0  0  0  0
  -53.2406  -17.2628   71.9159 H   0  0  0  1  0  0  0  0  0  0  0  0
  -54.1945  -18.7404   72.1893 H   0  0  0  1  0  0  0  0  0  0  0  0
  -52.1150  -18.9985   72.2567 N   0  0  0  1  0  0  0  0  0  0  0  0
  -51.5415  -19.2006   73.0631 H   0  0  0  1  0  0  0  0  0  0  0  0
  -51.6792  -19.5304   71.0299 C   0  0  0  1  0  0  0  0  0  0  0  0
  -52.3120  -19.2940   69.9872 O   0  0  0  1  0  0  0  0  0  0  0  0
  -50.4600  -20.2550   71.1740 N   0  0  0  1  0  0  0  0  0  0  0  0
  -50.1058  -20.2919   72.1192 H   0  0  0  1  0  0  0  0  0  0  0  0
  -49.6900  -20.9060   70.2590 C   0  0  0  1  0  0  0  0  0  0  0  0
  -50.2570  -20.8250   69.0000 N   0  0  0  1  0  0  0  0  0  0  0  0
  -49.8842  -21.3783   68.2417 H   0  0  0  1  0  0  0  0  0  0  0  0
  -51.0438  -20.2125   68.8389 H   0  0  0  1  0  0  0  0  0  0  0  0
  -48.6290  -21.7900   70.2920 N   0  0  0  1  0  0  0  0  0  0  0  0
  -47.7070  -22.1200   71.3230 C   0  0  0  1  0  0  0  0  0  0  0  0
  -48.1435  -21.9395   72.3054 H   0  0  0  1  0  0  0  0  0  0  0  0
  -47.3992  -23.1630   71.2482 H   0  0  0  1  0  0  0  0  0  0  0  0
  -46.5220  -21.1840   71.0740 C   0  0  0  1  0  0  0  0  0  0  0  0
  -46.9258  -20.2178   70.7716 H   0  0  0  1  0  0  0  0  0  0  0  0
  -45.9869  -21.0750   72.0173 H   0  0  0  1  0  0  0  0  0  0  0  0
  -45.4860  -21.6160   69.9960 C   0  0  0  1  0  0  0  0  0  0  0  0
  -45.9831  -21.6765   69.0278 H   0  0  0  1  0  0  0  0  0  0  0  0
  -45.0840  -22.5942   70.2597 H   0  0  0  1  0  0  0  0  0  0  0  0
  -44.2930  -20.5720   69.9030 C   0  0  0  1  0  0  0  0  0  0  0  0
  -43.4175  -20.9189   69.3542 H   0  0  0  1  0  0  0  0  0  0  0  0
  -43.9430  -20.2610   71.3950 C   0  0  0  1  0  0  0  0  0  0  0  0
  -43.2680  -21.2970   72.0370 N   0  0  0  1  0  0  0  0  0  0  0  0
  -42.9631  -22.0791   71.4753 H   0  0  0  1  0  0  0  0  0  0  0  0
  -42.9760  -21.3290   73.4430 C   0  0  0  1  0  0  0  0  0  0  0  0
  -42.1220  -21.9707   73.6596 H   0  0  0  1  0  0  0  0  0  0  0  0
  -42.7882  -20.3295   73.8353 H   0  0  0  1  0  0  0  0  0  0  0  0
  -44.2750  -21.9160   74.0000 C   0  0  0  1  0  0  0  0  0  0  0  0
  -44.6710  -23.2570   73.6750 C   0  0  0  1  0  0  0  0  0  0  0  0
  -44.0095  -23.8778   73.0890 H   0  0  0  1  0  0  0  0  0  0  0  0
  -45.9140  -23.7810   74.1090 C   0  0  0  1  0  0  0  0  0  0  0  0
  -46.2001  -24.7938   73.8667 H   0  0  0  1  0  0  0  0  0  0  0  0
  -46.7720  -22.9500   74.8660 C   0  0  0  1  0  0  0  0  0  0  0  0
  -48.0010  -23.3600   75.3380 O   0  0  0  1  0  0  0  0  0  0  0  0
  -48.4837  -22.6994   75.8401 H   0  0  0  1  0  0  0  0  0  0  0  0
  -46.3920  -21.6040   75.1900 C   0  0  0  1  0  0  0  0  0  0  0  0
  -47.0635  -20.9775   75.7583 H   0  0  0  1  0  0  0  0  0  0  0  0
  -45.1510  -21.0990   74.7710 C   0  0  0  1  0  0  0  0  0  0  0  0
  -44.8607  -20.0922   75.0329 H   0  0  0  1  0  0  0  0  0  0  0  0
  -44.2390  -19.1780   71.9410 O   0  0  0  1  0  0  0  0  0  0  0  0
  -44.8310  -19.3810   69.2410 N   0  0  0  1  0  0  0  0  0  0  0  0
  -45.3418  -18.7187   69.8071 H   0  0  0  1  0  0  0  0  0  0  0  0
  -44.6870  -19.1000   67.8890 C   0  0  0  1  0  0  0  0  0  0  0  0
  -44.0790  -19.8190   67.1090 O   0  0  0  1  0  0  0  0  0  0  0  0
  -45.4070  -17.8340   67.4640 C   0  0  0  1  0  0  0  0  0  0  0  0
  -45.5191  -17.1446   68.3008 H   0  0  0  1  0  0  0  0  0  0  0  0
  -46.7920  -18.2790   66.9880 C   0  0  0  1  0  0  0  0  0  0  0  0
  -47.9390  -17.9030   67.6910 C   0  0  0  1  0  0  0  0  0  0  0  0
  -47.8686  -17.2440   68.5437 H   0  0  0  1  0  0  0  0  0  0  0  0
  -49.1880  -18.3970   67.2700 C   0  0  0  1  0  0  0  0  0  0  0  0
  -50.0790  -18.1102   67.8088 H   0  0  0  1  0  0  0  0  0  0  0  0
  -46.9160  -19.1540   65.8530 C   0  0  0  1  0  0  0  0  0  0  0  0
  -46.0285  -19.4383   65.3071 H   0  0  0  1  0  0  0  0  0  0  0  0
  -48.1600  -19.6460   65.4390 C   0  0  0  1  0  0  0  0  0  0  0  0
  -48.2363  -20.3059   64.5875 H   0  0  0  1  0  0  0  0  0  0  0  0
  -49.3010  -19.2650   66.1510 C   0  0  0  1  0  0  0  0  0  0  0  0
  -50.2712  -19.6315   65.8496 H   0  0  0  1  0  0  0  0  0  0  0  0
  -44.6090  -16.9290   66.5050 C   0  0  0  1  0  0  0  0  0  0  0  0
  -43.2450  -16.6910   66.7460 C   0  0  0  1  0  0  0  0  0  0  0  0
  -42.7509  -17.1929   67.5647 H   0  0  0  1  0  0  0  0  0  0  0  0
  -42.5140  -15.8010   65.9270 C   0  0  0  1  0  0  0  0  0  0  0  0
  -41.4684  -15.6253   66.1325 H   0  0  0  1  0  0  0  0  0  0  0  0
  -43.1280  -15.1420   64.8500 C   0  0  0  1  0  0  0  0  0  0  0  0
  -42.5627  -14.4605   64.2316 H   0  0  0  1  0  0  0  0  0  0  0  0
  -44.4780  -15.3790   64.5890 C   0  0  0  1  0  0  0  0  0  0  0  0
  -44.9601  -14.8861   63.7577 H   0  0  0  1  0  0  0  0  0  0  0  0
  -45.2150  -16.2600   65.4070 C   0  0  0  1  0  0  0  0  0  0  0  0
  -46.2603  -16.4297   65.1951 H   0  0  0  1  0  0  0  0  0  0  0  0
  -55.8736  -15.5808   78.2241 O   0  0  0  1  0  0  0  0  0  0  0  0
  1  2  1  0  0  0  0
  1  3  1  0  0  0  0
  1  4  1  0  0  0  0
  1 14  1  0  0  0  0
  4  5  1  0  0  0  0
  4  6  1  0  0  0  0
  6  7  1  0  0  0  0
  6 92  2  0  0  0  0
  7  8  1  0  0  0  0
  7  9  1  0  0  0  0
  7 10  1  0  0  0  0
 10 11  1  0  0  0  0
 10 12  1  0  0  0  0
 10 13  1  0  0  0  0
 14 15  1  0  0  0  0
 14 16  1  0  0  0  0
 14 17  1  0  0  0  0
 17 18  1  0  0  0  0
 17 19  1  0  0  0  0
 17 20  1  0  0  0  0
 20 21  1  0  0  0  0
 20 22  1  0  0  0  0
 20 23  1  0  0  0  0
 23 24  1  0  0  0  0
 23 25  1  0  0  0  0
 25 26  2  0  0  0  0
 25 27  1  0  0  0  0
 27 28  1  0  0  0  0
 27 29  1  0  0  0  0
 29 30  1  0  0  0  0
 29 33  2  0  0  0  0
 30 31  1  0  0  0  0
 30 32  1  0  0  0  0
 33 34  1  0  0  0  0
 34 35  1  0  0  0  0
 34 36  1  0  0  0  0
 34 37  1  0  0  0  0
 37 38  1  0  0  0  0
 37 39  1  0  0  0  0
 37 40  1  0  0  0  0
 40 41  1  0  0  0  0
 40 42  1  0  0  0  0
 40 43  1  0  0  0  0
 43 44  1  0  0  0  0
 43 45  1  0  0  0  0
 43 64  1  0  0  0  0
 45 46  1  0  0  0  0
 45 63  2  0  0  0  0
 46 47  1  0  0  0  0
 46 48  1  0  0  0  0
 48 49  1  0  0  0  0
 48 50  1  0  0  0  0
 48 51  1  0  0  0  0
 51 52  1  0  0  0  0
 51 61  2  0  0  0  0
 52 53  1  0  0  0  0
 52 54  2  0  0  0  0
 54 55  1  0  0  0  0
 54 56  1  0  0  0  0
 56 57  1  0  0  0  0
 56 59  2  0  0  0  0
 57 58  1  0  0  0  0
 59 60  1  0  0  0  0
 59 61  1  0  0  0  0
 61 62  1  0  0  0  0
 64 65  1  0  0  0  0
 64 66  1  0  0  0  0
 66 67  2  0  0  0  0
 66 68  1  0  0  0  0
 68 69  1  0  0  0  0
 68 70  1  0  0  0  0
 68 81  1  0  0  0  0
 70 71  2  0  0  0  0
 70 75  1  0  0  0  0
 71 72  1  0  0  0  0
 71 73  1  0  0  0  0
 73 74  1  0  0  0  0
 73 79  2  0  0  0  0
 75 76  1  0  0  0  0
 75 77  2  0  0  0  0
 77 78  1  0  0  0  0
 77 79  1  0  0  0  0
 79 80  1  0  0  0  0
 81 82  1  0  0  0  0
 81 90  2  0  0  0  0
 82 83  1  0  0  0  0
 82 84  2  0  0  0  0
 84 85  1  0  0  0  0
 84 86  1  0  0  0  0
 86 87  1  0  0  0  0
 86 88  2  0  0  0  0
 88 89  1  0  0  0  0
 88 90  1  0  0  0  0
 90 91  1  0  0  0  0
M  END
> <ConfScore>
-0.674933 

> <SampleByParts>
10 7 6 92 4 1 14 17 20 23 25 26 27 29 30 33

$$$$
NPY1_MK299_12302016.pdb.B
  MOE2014           3D

 92 94  0  0  0  0  0  0  0  0999 V2000
  -54.8898  -16.8158   75.8022 C   0  0  0  1  0  0  0  0  0  0  0  0
  -53.9847  -16.3969   76.2514 H   0  0  0  1  0  0  0  0  0  0  0  0
  -55.7079  -16.1054   75.9612 H   0  0  0  1  0  0  0  0  0  0  0  0
  -55.2526  -18.0452   76.4899 N   0  0  0  1  0  0  0  0  0  0  0  0
  -56.0394  -18.5705   76.1275 H   0  0  0  1  0  0  0  0  0  0  0  0
  -54.6744  -18.6195   77.5894 C   0  0  0  1  0  0  0  0  0  0  0  0
  -55.2776  -19.9146   78.0984 C   0  0  0  1  0  0  0  0  0  0  0  0
  -56.1513  -20.1573   77.4840 H   0  0  0  1  0  0  0  0  0  0  0  0
  -55.6084  -19.7727   79.1320 H   0  0  0  1  0  0  0  0  0  0  0  0
  -54.2957  -21.0714   78.0458 C   0  0  0  1  0  0  0  0  0  0  0  0
  -54.7592  -21.9843   78.4321 H   0  0  0  1  0  0  0  0  0  0  0  0
  -53.4083  -20.8563   78.6479 H   0  0  0  1  0  0  0  0  0  0  0  0
  -53.9663  -21.2623   77.0193 H   0  0  0  1  0  0  0  0  0  0  0  0
  -54.6913  -17.0713   74.3135 C   0  0  0  1  0  0  0  0  0  0  0  0
  -55.6129  -17.5020   73.9074 H   0  0  0  1  0  0  0  0  0  0  0  0
  -54.5443  -16.1180   73.7900 H   0  0  0  1  0  0  0  0  0  0  0  0
  -53.5013  -17.9996   74.0310 C   0  0  0  1  0  0  0  0  0  0  0  0
  -52.5896  -17.5621   74.4377 H   0  0  0  1  0  0  0  0  0  0  0  0
  -53.6834  -18.9647   74.5038 H   0  0  0  1  0  0  0  0  0  0  0  0
  -53.3236  -18.2103   72.4986 C   0  0  0  1  0  0  0  0  0  0  0  0
  -53.2135  -17.2432   72.0078 H   0  0  0  1  0  0  0  0  0  0  0  0
  -54.1973  -18.7238   72.0973 H   0  0  0  1  0  0  0  0  0  0  0  0
  -52.1280  -19.0191   72.2603 N   0  0  0  1  0  0  0  0  0  0  0  0
  -51.5786  -19.2591   73.0731 H   0  0  0  1  0  0  0  0  0  0  0  0
  -51.6594  -19.4991   71.0244 C   0  0  0  1  0  0  0  0  0  0  0  0
  -52.2504  -19.1989   69.9736 O   0  0  0  1  0  0  0  0  0  0  0  0
  -50.4600  -20.2550   71.1740 N   0  0  0  1  0  0  0  0  0  0  0  0
  -50.1228  -20.3188   72.1239 H   0  0  0  1  0  0  0  0  0  0  0  0
  -49.6900  -20.9060   70.2590 C   0  0  0  1  0  0  0  0  0  0  0  0
  -50.2570  -20.8250   69.0000 N   0  0  0  1  0  0  0  0  0  0  0  0
  -49.8842  -21.3783   68.2417 H   0  0  0  1  0  0  0  0  0  0  0  0
  -51.0438  -20.2125   68.8389 H   0  0  0  1  0  0  0  0  0  0  0  0
  -48.6290  -21.7900   70.2920 N   0  0  0  1  0  0  0  0  0  0  0  0
  -47.7070  -22.1200   71.3230 C   0  0  0  1  0  0  0  0  0  0  0  0
  -48.1435  -21.9395   72.3054 H   0  0  0  1  0  0  0  0  0  0  0  0
  -47.3992  -23.1630   71.2482 H   0  0  0  1  0  0  0  0  0  0  0  0
  -46.5220  -21.1840   71.0740 C   0  0  0  1  0  0  0  0  0  0  0  0
  -46.9258  -20.2178   70.7716 H   0  0  0  1  0  0  0  0  0  0  0  0
  -45.9869  -21.0750   72.0173 H   0  0  0  1  0  0  0  0  0  0  0  0
  -45.4860  -21.6160   69.9960 C   0  0  0  1  0  0  0  0  0  0  0  0
  -45.9831  -21.6765   69.0278 H   0  0  0  1  0  0  0  0  0  0  0  0
  -45.0840  -22.5942   70.2597 H   0  0  0  1  0  0  0  0  0  0  0  0
  -44.2930  -20.5720   69.9030 C   0  0  0  1  0  0  0  0  0  0  0  0
  -43.4175  -20.9189   69.3542 H   0  0  0  1  0  0  0  0  0  0  0  0
  -43.9430  -20.2610   71.3950 C   0  0  0  1  0  0  0  0  0  0  0  0
  -43.2680  -21.2970   72.0370 N   0  0  0  1  0  0  0  0  0  0  0  0
  -42.9631  -22.0791   71.4753 H   0  0  0  1  0  0  0  0  0  0  0  0
  -42.9760  -21.3290   73.4430 C   0  0  0  1  0  0  0  0  0  0  0  0
  -42.1220  -21.9707   73.6596 H   0  0  0  1  0  0  0  0  0  0  0  0
  -42.7882  -20.3295   73.8353 H   0  0  0  1  0  0  0  0  0  0  0  0
  -44.2750  -21.9160   74.0000 C   0  0  0  1  0  0  0  0  0  0  0  0
  -44.6710  -23.2570   73.6750 C   0  0  0  1  0  0  0  0  0  0  0  0
  -44.0095  -23.8778   73.0890 H   0  0  0  1  0  0  0  0  0  0  0  0
  -45.9140  -23.7810   74.1090 C   0  0  0  1  0  0  0  0  0  0  0  0
  -46.2001  -24.7938   73.8667 H   0  0  0  1  0  0  0  0  0  0  0  0
  -46.7720  -22.9500   74.8660 C   0  0  0  1  0  0  0  0  0  0  0  0
  -48.0010  -23.3600   75.3380 O   0  0  0  1  0  0  0  0  0  0  0  0
  -48.4837  -22.6994   75.8401 H   0  0  0  1  0  0  0  0  0  0  0  0
  -46.3920  -21.6040   75.1900 C   0  0  0  1  0  0  0  0  0  0  0  0
  -47.0635  -20.9775   75.7583 H   0  0  0  1  0  0  0  0  0  0  0  0
  -45.1510  -21.0990   74.7710 C   0  0  0  1  0  0  0  0  0  0  0  0
  -44.8607  -20.0922   75.0329 H   0  0  0  1  0  0  0  0  0  0  0  0
  -44.2390  -19.1780   71.9410 O   0  0  0  1  0  0  0  0  0  0  0  0
  -44.8310  -19.3810   69.2410 N   0  0  0  1  0  0  0  0  0  0  0  0
  -45.3418  -18.7187   69.8071 H   0  0  0  1  0  0  0  0  0  0  0  0
  -44.6870  -19.1000   67.8890 C   0  0  0  1  0  0  0  0  0  0  0  0
  -44.0790  -19.8190   67.1090 O   0  0  0  1  0  0  0  0  0  0  0  0
  -45.4070  -17.8340   67.4640 C   0  0  0  1  0  0  0  0  0  0  0  0
  -45.5191  -17.1446   68.3008 H   0  0  0  1  0  0  0  0  0  0  0  0
  -46.7920  -18.2790   66.9880 C   0  0  0  1  0  0  0  0  0  0  0  0
  -47.9390  -17.9030   67.6910 C   0  0  0  1  0  0  0  0  0  0  0  0
  -47.8686  -17.2440   68.5437 H   0  0  0  1  0  0  0  0  0  0  0  0
  -49.1880  -18.3970   67.2700 C   0  0  0  1  0  0  0  0  0  0  0  0
  -50.0790  -18.1102   67.8088 H   0  0  0  1  0  0  0  0  0  0  0  0
  -46.9160  -19.1540   65.8530 C   0  0  0  1  0  0  0  0  0  0  0  0
  -46.0285  -19.4383   65.3071 H   0  0  0  1  0  0  0  0  0  0  0  0
  -48.1600  -19.6460   65.4390 C   0  0  0  1  0  0  0  0  0  0  0  0
  -48.2363  -20.3059   64.5875 H   0  0  0  1  0  0  0  0  0  0  0  0
  -49.3010  -19.2650   66.1510 C   0  0  0  1  0  0  0  0  0  0  0  0
  -50.2712  -19.6315   65.8496 H   0  0  0  1  0  0  0  0  0  0  0  0
  -44.6090  -16.9290   66.5050 C   0  0  0  1  0  0  0  0  0  0  0  0
  -43.2450  -16.6910   66.7460 C   0  0  0  1  0  0  0  0  0  0  0  0
  -42.7509  -17.1929   67.5647 H   0  0  0  1  0  0  0  0  0  0  0  0
  -42.5140  -15.8010   65.9270 C   0  0  0  1  0  0  0  0  0  0  0  0
  -41.4684  -15.6253   66.1325 H   0  0  0  1  0  0  0  0  0  0  0  0
  -43.1280  -15.1420   64.8500 C   0  0  0  1  0  0  0  0  0  0  0  0
  -42.5627  -14.4605   64.2316 H   0  0  0  1  0  0  0  0  0  0  0  0
  -44.4780  -15.3790   64.5890 C   0  0  0  1  0  0  0  0  0  0  0  0
  -44.9601  -14.8861   63.7577 H   0  0  0  1  0  0  0  0  0  0  0  0
  -45.2150  -16.2600   65.4070 C   0  0  0  1  0  0  0  0  0  0  0  0
  -46.2603  -16.4297   65.1951 H   0  0  0  1  0  0  0  0  0  0  0  0
  -53.6976  -18.0782   78.1055 O   0  0  0  1  0  0  0  0  0  0  0  0
  1  2  1  0  0  0  0
  1  3  1  0  0  0  0
  1  4  1  0  0  0  0
  1 14  1  0  0  0  0
  4  5  1  0  0  0  0
  4  6  1  0  0  0  0
  6  7  1  0  0  0  0
  6 92  2  0  0  0  0
  7  8  1  0  0  0  0
  7  9  1  0  0  0  0
  7 10  1  0  0  0  0
 10 11  1  0  0  0  0
 10 12  1  0  0  0  0
 10 13  1  0  0  0  0
 14 15  1  0  0  0  0
 14 16  1  0  0  0  0
 14 17  1  0  0  0  0
 17 18  1  0  0  0  0
 17 19  1  0  0  0  0
 17 20  1  0  0  0  0
 20 21  1  0  0  0  0
 20 22  1  0  0  0  0
 20 23  1  0  0  0  0
 23 24  1  0  0  0  0
 23 25  1  0  0  0  0
 25 26  2  0  0  0  0
 25 27  1  0  0  0  0
 27 28  1  0  0  0  0
 27 29  1  0  0  0  0
 29 30  1  0  0  0  0
 29 33  2  0  0  0  0
 30 31  1  0  0  0  0
 30 32  1  0  0  0  0
 33 34  1  0  0  0  0
 34 35  1  0  0  0  0
 34 36  1  0  0  0  0
 34 37  1  0  0  0  0
 37 38  1  0  0  0  0
 37 39  1  0  0  0  0
 37 40  1  0  0  0  0
 40 41  1  0  0  0  0
 40 42  1  0  0  0  0
 40 43  1  0  0  0  0
 43 44  1  0  0  0  0
 43 45  1  0  0  0  0
 43 64  1  0  0  0  0
 45 46  1  0  0  0  0
 45 63  2  0  0  0  0
 46 47  1  0  0  0  0
 46 48  1  0  0  0  0
 48 49  1  0  0  0  0
 48 50  1  0  0  0  0
 48 51  1  0  0  0  0
 51 52  1  0  0  0  0
 51 61  2  0  0  0  0
 52 53  1  0  0  0  0
 52 54  2  0  0  0  0
 54 55  1  0  0  0  0
 54 56  1  0  0  0  0
 56 57  1  0  0  0  0
 56 59  2  0  0  0  0
 57 58  1  0  0  0  0
 59 60  1  0  0  0  0
 59 61  1  0  0  0  0
 61 62  1  0  0  0  0
 64 65  1  0  0  0  0
 64 66  1  0  0  0  0
 66 67  2  0  0  0  0
 66 68  1  0  0  0  0
 68 69  1  0  0  0  0
 68 70  1  0  0  0  0
 68 81  1  0  0  0  0
 70 71  2  0  0  0  0
 70 75  1  0  0  0  0
 71 72  1  0  0  0  0
 71 73  1  0  0  0  0
 73 74  1  0  0  0  0
 73 79  2  0  0  0  0
 75 76  1  0  0  0  0
 75 77  2  0  0  0  0
 77 78  1  0  0  0  0
 77 79  1  0  0  0  0
 79 80  1  0  0  0  0
 81 82  1  0  0  0  0
 81 90  2  0  0  0  0
 82 83  1  0  0  0  0
 82 84  2  0  0  0  0
 84 85  1  0  0  0  0
 84 86  1  0  0  0  0
 86 87  1  0  0  0  0
 86 88  2  0  0  0  0
 88 89  1  0  0  0  0
 88 90  1  0  0  0  0
 90 91  1  0  0  0  0
M  END
> <ConfScore>
-0.674764 

> <SampleByParts>
10 7 6 92 4 1 14 17 20 23 25 26 27 29 30 33

$$$$
NPY1_MK299_12302016.pdb.B
  MOE2014           3D

 92 94  0  0  0  0  0  0  0  0999 V2000
  -54.5838  -16.3177   75.6903 C   0  0  0  1  0  0  0  0  0  0  0  0
  -53.7649  -15.6570   75.9887 H   0  0  0  1  0  0  0  0  0  0  0  0
  -55.5272  -15.7910   75.8682 H   0  0  0  1  0  0  0  0  0  0  0  0
  -54.5899  -17.5011   76.5363 N   0  0  0  1  0  0  0  0  0  0  0  0
  -55.3386  -18.1701   76.4014 H   0  0  0  1  0  0  0  0  0  0  0  0
  -53.7093  -17.8605   77.5204 C   0  0  0  1  0  0  0  0  0  0  0  0
  -53.9606  -19.1739   78.2357 C   0  0  0  1  0  0  0  0  0  0  0  0
  -54.9120  -19.5865   77.8829 H   0  0  0  1  0  0  0  0  0  0  0  0
  -54.0412  -18.9855   79.3109 H   0  0  0  1  0  0  0  0  0  0  0  0
  -52.8574  -20.1878   77.9907 C   0  0  0  1  0  0  0  0  0  0  0  0
  -53.0644  -21.1164   78.5314 H   0  0  0  1  0  0  0  0  0  0  0  0
  -51.8918  -19.8018   78.3296 H   0  0  0  1  0  0  0  0  0  0  0  0
  -52.7690  -20.4241   76.9253 H   0  0  0  1  0  0  0  0  0  0  0  0
  -54.4626  -16.7071   74.2224 C   0  0  0  1  0  0  0  0  0  0  0  0
  -55.3999  -17.1786   73.9079 H   0  0  0  1  0  0  0  0  0  0  0  0
  -54.3542  -15.8048   73.6072 H   0  0  0  1  0  0  0  0  0  0  0  0
  -53.2794  -17.6503   73.9614 C   0  0  0  1  0  0  0  0  0  0  0  0
  -52.3485  -17.1585   74.2435 H   0  0  0  1  0  0  0  0  0  0  0  0
  -53.4075  -18.5544   74.5567 H   0  0  0  1  0  0  0  0  0  0  0  0
  -53.2120  -18.0393   72.4553 C   0  0  0  1  0  0  0  0  0  0  0  0
  -53.0855  -17.1405   71.8517 H   0  0  0  1  0  0  0  0  0  0  0  0
  -54.1344  -18.5435   72.1672 H   0  0  0  1  0  0  0  0  0  0  0  0
  -52.0762  -18.9364   72.2412 N   0  0  0  1  0  0  0  0  0  0  0  0
  -51.5156  -19.1531   73.0529 H   0  0  0  1  0  0  0  0  0  0  0  0
  -51.6792  -19.5304   71.0299 C   0  0  0  1  0  0  0  0  0  0  0  0
  -52.3410  -19.3411   69.9956 O   0  0  0  1  0  0  0  0  0  0  0  0
  -50.4600  -20.2550   71.1740 N   0  0  0  1  0  0  0  0  0  0  0  0
  -50.1058  -20.2919   72.1192 H   0  0  0  1  0  0  0  0  0  0  0  0
  -49.6900  -20.9060   70.2590 C   0  0  0  1  0  0  0  0  0  0  0  0
  -50.2570  -20.8250   69.0000 N   0  0  0  1  0  0  0  0  0  0  0  0
  -49.8842  -21.3783   68.2417 H   0  0  0  1  0  0  0  0  0  0  0  0
  -51.0438  -20.2125   68.8389 H   0  0  0  1  0  0  0  0  0  0  0  0
  -48.6290  -21.7900   70.2920 N   0  0  0  1  0  0  0  0  0  0  0  0
  -47.7070  -22.1200   71.3230 C   0  0  0  1  0  0  0  0  0  0  0  0
  -48.1435  -21.9395   72.3054 H   0  0  0  1  0  0  0  0  0  0  0  0
  -47.3992  -23.1630   71.2482 H   0  0  0  1  0  0  0  0  0  0  0  0
  -46.5220  -21.1840   71.0740 C   0  0  0  1  0  0  0  0  0  0  0  0
  -46.9258  -20.2178   70.7716 H   0  0  0  1  0  0  0  0  0  0  0  0
  -45.9869  -21.0750   72.0173 H   0  0  0  1  0  0  0  0  0  0  0  0
  -45.4860  -21.6160   69.9960 C   0  0  0  1  0  0  0  0  0  0  0  0
  -45.9831  -21.6765   69.0278 H   0  0  0  1  0  0  0  0  0  0  0  0
  -45.0840  -22.5942   70.2597 H   0  0  0  1  0  0  0  0  0  0  0  0
  -44.2930  -20.5720   69.9030 C   0  0  0  1  0  0  0  0  0  0  0  0
  -43.4175  -20.9189   69.3542 H   0  0  0  1  0  0  0  0  0  0  0  0
  -43.9430  -20.2610   71.3950 C   0  0  0  1  0  0  0  0  0  0  0  0
  -43.2680  -21.2970   72.0370 N   0  0  0  1  0  0  0  0  0  0  0  0
  -42.9631  -22.0791   71.4753 H   0  0  0  1  0  0  0  0  0  0  0  0
  -42.9760  -21.3290   73.4430 C   0  0  0  1  0  0  0  0  0  0  0  0
  -42.1220  -21.9707   73.6596 H   0  0  0  1  0  0  0  0  0  0  0  0
  -42.7882  -20.3295   73.8353 H   0  0  0  1  0  0  0  0  0  0  0  0
  -44.2750  -21.9160   74.0000 C   0  0  0  1  0  0  0  0  0  0  0  0
  -44.6710  -23.2570   73.6750 C   0  0  0  1  0  0  0  0  0  0  0  0
  -44.0095  -23.8778   73.0890 H   0  0  0  1  0  0  0  0  0  0  0  0
  -45.9140  -23.7810   74.1090 C   0  0  0  1  0  0  0  0  0  0  0  0
  -46.2001  -24.7938   73.8667 H   0  0  0  1  0  0  0  0  0  0  0  0
  -46.7720  -22.9500   74.8660 C   0  0  0  1  0  0  0  0  0  0  0  0
  -48.0010  -23.3600   75.3380 O   0  0  0  1  0  0  0  0  0  0  0  0
  -48.4837  -22.6994   75.8401 H   0  0  0  1  0  0  0  0  0  0  0  0
  -46.3920  -21.6040   75.1900 C   0  0  0  1  0  0  0  0  0  0  0  0
  -47.0635  -20.9775   75.7583 H   0  0  0  1  0  0  0  0  0  0  0  0
  -45.1510  -21.0990   74.7710 C   0  0  0  1  0  0  0  0  0  0  0  0
  -44.8607  -20.0922   75.0329 H   0  0  0  1  0  0  0  0  0  0  0  0
  -44.2390  -19.1780   71.9410 O   0  0  0  1  0  0  0  0  0  0  0  0
  -44.8310  -19.3810   69.2410 N   0  0  0  1  0  0  0  0  0  0  0  0
  -45.3418  -18.7187   69.8071 H   0  0  0  1  0  0  0  0  0  0  0  0
  -44.6870  -19.1000   67.8890 C   0  0  0  1  0  0  0  0  0  0  0  0
  -44.0790  -19.8190   67.1090 O   0  0  0  1  0  0  0  0  0  0  0  0
  -45.4070  -17.8340   67.4640 C   0  0  0  1  0  0  0  0  0  0  0  0
  -45.5191  -17.1446   68.3008 H   0  0  0  1  0  0  0  0  0  0  0  0
  -46.7920  -18.2790   66.9880 C   0  0  0  1  0  0  0  0  0  0  0  0
  -47.9390  -17.9030   67.6910 C   0  0  0  1  0  0  0  0  0  0  0  0
  -47.8686  -17.2440   68.5437 H   0  0  0  1  0  0  0  0  0  0  0  0
  -49.1880  -18.3970   67.2700 C   0  0  0  1  0  0  0  0  0  0  0  0
  -50.0790  -18.1102   67.8088 H   0  0  0  1  0  0  0  0  0  0  0  0
  -46.9160  -19.1540   65.8530 C   0  0  0  1  0  0  0  0  0  0  0  0
  -46.0285  -19.4383   65.3071 H   0  0  0  1  0  0  0  0  0  0  0  0
  -48.1600  -19.6460   65.4390 C   0  0  0  1  0  0  0  0  0  0  0  0
  -48.2363  -20.3059   64.5875 H   0  0  0  1  0  0  0  0  0  0  0  0
  -49.3010  -19.2650   66.1510 C   0  0  0  1  0  0  0  0  0  0  0  0
  -50.2712  -19.6315   65.8496 H   0  0  0  1  0  0  0  0  0  0  0  0
  -44.6090  -16.9290   66.5050 C   0  0  0  1  0  0  0  0  0  0  0  0
  -43.2450  -16.6910   66.7460 C   0  0  0  1  0  0  0  0  0  0  0  0
  -42.7509  -17.1929   67.5647 H   0  0  0  1  0  0  0  0  0  0  0  0
  -42.5140  -15.8010   65.9270 C   0  0  0  1  0  0  0  0  0  0  0  0
  -41.4684  -15.6253   66.1325 H   0  0  0  1  0  0  0  0  0  0  0  0
  -43.1280  -15.1420   64.8500 C   0  0  0  1  0  0  0  0  0  0  0  0
  -42.5627  -14.4605   64.2316 H   0  0  0  1  0  0  0  0  0  0  0  0
  -44.4780  -15.3790   64.5890 C   0  0  0  1  0  0  0  0  0  0  0  0
  -44.9601  -14.8861   63.7577 H   0  0  0  1  0  0  0  0  0  0  0  0
  -45.2150  -16.2600   65.4070 C   0  0  0  1  0  0  0  0  0  0  0  0
  -46.2603  -16.4297   65.1951 H   0  0  0  1  0  0  0  0  0  0  0  0
  -52.7582  -17.1224   77.7734 O   0  0  0  1  0  0  0  0  0  0  0  0
  1  2  1  0  0  0  0
  1  3  1  0  0  0  0
  1  4  1  0  0  0  0
  1 14  1  0  0  0  0
  4  5  1  0  0  0  0
  4  6  1  0  0  0  0
  6  7  1  0  0  0  0
  6 92  2  0  0  0  0
  7  8  1  0  0  0  0
  7  9  1  0  0  0  0
  7 10  1  0  0  0  0
 10 11  1  0  0  0  0
 10 12  1  0  0  0  0
 10 13  1  0  0  0  0
 14 15  1  0  0  0  0
 14 16  1  0  0  0  0
 14 17  1  0  0  0  0
 17 18  1  0  0  0  0
 17 19  1  0  0  0  0
 17 20  1  0  0  0  0
 20 21  1  0  0  0  0
 20 22  1  0  0  0  0
 20 23  1  0  0  0  0
 23 24  1  0  0  0  0
 23 25  1  0  0  0  0
 25 26  2  0  0  0  0
 25 27  1  0  0  0  0
 27 28  1  0  0  0  0
 27 29  1  0  0  0  0
 29 30  1  0  0  0  0
 29 33  2  0  0  0  0
 30 31  1  0  0  0  0
 30 32  1  0  0  0  0
 33 34  1  0  0  0  0
 34 35  1  0  0  0  0
 34 36  1  0  0  0  0
 34 37  1  0  0  0  0
 37 38  1  0  0  0  0
 37 39  1  0  0  0  0
 37 40  1  0  0  0  0
 40 41  1  0  0  0  0
 40 42  1  0  0  0  0
 40 43  1  0  0  0  0
 43 44  1  0  0  0  0
 43 45  1  0  0  0  0
 43 64  1  0  0  0  0
 45 46  1  0  0  0  0
 45 63  2  0  0  0  0
 46 47  1  0  0  0  0
 46 48  1  0  0  0  0
 48 49  1  0  0  0  0
 48 50  1  0  0  0  0
 48 51  1  0  0  0  0
 51 52  1  0  0  0  0
 51 61  2  0  0  0  0
 52 53  1  0  0  0  0
 52 54  2  0  0  0  0
 54 55  1  0  0  0  0
 54 56  1  0  0  0  0
 56 57  1  0  0  0  0
 56 59  2  0  0  0  0
 57 58  1  0  0  0  0
 59 60  1  0  0  0  0
 59 61  1  0  0  0  0
 61 62  1  0  0  0  0
 64 65  1  0  0  0  0
 64 66  1  0  0  0  0
 66 67  2  0  0  0  0
 66 68  1  0  0  0  0
 68 69  1  0  0  0  0
 68 70  1  0  0  0  0
 68 81  1  0  0  0  0
 70 71  2  0  0  0  0
 70 75  1  0  0  0  0
 71 72  1  0  0  0  0
 71 73  1  0  0  0  0
 73 74  1  0  0  0  0
 73 79  2  0  0  0  0
 75 76  1  0  0  0  0
 75 77  2  0  0  0  0
 77 78  1  0  0  0  0
 77 79  1  0  0  0  0
 79 80  1  0  0  0  0
 81 82  1  0  0  0  0
 81 90  2  0  0  0  0
 82 83  1  0  0  0  0
 82 84  2  0  0  0  0
 84 85  1  0  0  0  0
 84 86  1  0  0  0  0
 86 87  1  0  0  0  0
 86 88  2  0  0  0  0
 88 89  1  0  0  0  0
 88 90  1  0  0  0  0
 90 91  1  0  0  0  0
M  END
> <ConfScore>
-0.674764 

> <SampleByParts>
10 7 6 92 4 1 14 17 20 23 25 26 27 29 30 33

$$$$
NPY1_MK299_12302016.pdb.B
  MOE2014           3D

 92 94  0  0  0  0  0  0  0  0999 V2000
  -54.6975  -16.5156   75.7515 C   0  0  0  1  0  0  0  0  0  0  0  0
  -54.7919  -17.4114   76.3719 H   0  0  0  1  0  0  0  0  0  0  0  0
  -53.8115  -15.9642   76.0836 H   0  0  0  1  0  0  0  0  0  0  0  0
  -55.8453  -15.6484   75.9672 N   0  0  0  1  0  0  0  0  0  0  0  0
  -56.3935  -15.3858   75.1568 H   0  0  0  1  0  0  0  0  0  0  0  0
  -56.3130  -15.1144   77.1374 C   0  0  0  1  0  0  0  0  0  0  0  0
  -57.5409  -14.2279   77.0578 C   0  0  0  1  0  0  0  0  0  0  0  0
  -58.3606  -14.8063   76.6182 H   0  0  0  1  0  0  0  0  0  0  0  0
  -57.3258  -13.3775   76.4031 H   0  0  0  1  0  0  0  0  0  0  0  0
  -57.9713  -13.7102   78.4186 C   0  0  0  1  0  0  0  0  0  0  0  0
  -58.8497  -13.0648   78.3220 H   0  0  0  1  0  0  0  0  0  0  0  0
  -57.1700  -13.1307   78.8858 H   0  0  0  1  0  0  0  0  0  0  0  0
  -58.2248  -14.5355   79.0919 H   0  0  0  1  0  0  0  0  0  0  0  0
  -54.5715  -16.8837   74.2785 C   0  0  0  1  0  0  0  0  0  0  0  0
  -55.5000  -17.3693   73.9595 H   0  0  0  1  0  0  0  0  0  0  0  0
  -54.4818  -15.9717   73.6747 H   0  0  0  1  0  0  0  0  0  0  0  0
  -53.3706  -17.8002   74.0034 C   0  0  0  1  0  0  0  0  0  0  0  0
  -52.4521  -17.3080   74.3231 H   0  0  0  1  0  0  0  0  0  0  0  0
  -53.4976  -18.7290   74.5596 H   0  0  0  1  0  0  0  0  0  0  0  0
  -53.2690  -18.1277   72.4846 C   0  0  0  1  0  0  0  0  0  0  0  0
  -53.1613  -17.2025   71.9184 H   0  0  0  1  0  0  0  0  0  0  0  0
  -54.1712  -18.6477   72.1625 H   0  0  0  1  0  0  0  0  0  0  0  0
  -52.1033  -18.9812   72.2541 N   0  0  0  1  0  0  0  0  0  0  0  0
  -51.5573  -19.2254   73.0679 H   0  0  0  1  0  0  0  0  0  0  0  0
  -51.6594  -19.4991   71.0244 C   0  0  0  1  0  0  0  0  0  0  0  0
  -52.2687  -19.2275   69.9763 O   0  0  0  1  0  0  0  0  0  0  0  0
  -50.4600  -20.2550   71.1740 N   0  0  0  1  0  0  0  0  0  0  0  0
  -50.1228  -20.3188   72.1239 H   0  0  0  1  0  0  0  0  0  0  0  0
  -49.6900  -20.9060   70.2590 C   0  0  0  1  0  0  0  0  0  0  0  0
  -50.2570  -20.8250   69.0000 N   0  0  0  1  0  0  0  0  0  0  0  0
  -49.8842  -21.3783   68.2417 H   0  0  0  1  0  0  0  0  0  0  0  0
  -51.0438  -20.2125   68.8389 H   0  0  0  1  0  0  0  0  0  0  0  0
  -48.6290  -21.7900   70.2920 N   0  0  0  1  0  0  0  0  0  0  0  0
  -47.7070  -22.1200   71.3230 C   0  0  0  1  0  0  0  0  0  0  0  0
  -48.1435  -21.9395   72.3054 H   0  0  0  1  0  0  0  0  0  0  0  0
  -47.3992  -23.1630   71.2482 H   0  0  0  1  0  0  0  0  0  0  0  0
  -46.5220  -21.1840   71.0740 C   0  0  0  1  0  0  0  0  0  0  0  0
  -46.9258  -20.2178   70.7716 H   0  0  0  1  0  0  0  0  0  0  0  0
  -45.9869  -21.0750   72.0173 H   0  0  0  1  0  0  0  0  0  0  0  0
  -45.4860  -21.6160   69.9960 C   0  0  0  1  0  0  0  0  0  0  0  0
  -45.9831  -21.6765   69.0278 H   0  0  0  1  0  0  0  0  0  0  0  0
  -45.0840  -22.5942   70.2597 H   0  0  0  1  0  0  0  0  0  0  0  0
  -44.2930  -20.5720   69.9030 C   0  0  0  1  0  0  0  0  0  0  0  0
  -43.4175  -20.9189   69.3542 H   0  0  0  1  0  0  0  0  0  0  0  0
  -43.9430  -20.2610   71.3950 C   0  0  0  1  0  0  0  0  0  0  0  0
  -43.2680  -21.2970   72.0370 N   0  0  0  1  0  0  0  0  0  0  0  0
  -42.9631  -22.0791   71.4753 H   0  0  0  1  0  0  0  0  0  0  0  0
  -42.9760  -21.3290   73.4430 C   0  0  0  1  0  0  0  0  0  0  0  0
  -42.1220  -21.9707   73.6596 H   0  0  0  1  0  0  0  0  0  0  0  0
  -42.7882  -20.3295   73.8353 H   0  0  0  1  0  0  0  0  0  0  0  0
  -44.2750  -21.9160   74.0000 C   0  0  0  1  0  0  0  0  0  0  0  0
  -44.6710  -23.2570   73.6750 C   0  0  0  1  0  0  0  0  0  0  0  0
  -44.0095  -23.8778   73.0890 H   0  0  0  1  0  0  0  0  0  0  0  0
  -45.9140  -23.7810   74.1090 C   0  0  0  1  0  0  0  0  0  0  0  0
  -46.2001  -24.7938   73.8667 H   0  0  0  1  0  0  0  0  0  0  0  0
  -46.7720  -22.9500   74.8660 C   0  0  0  1  0  0  0  0  0  0  0  0
  -48.0010  -23.3600   75.3380 O   0  0  0  1  0  0  0  0  0  0  0  0
  -48.4837  -22.6994   75.8401 H   0  0  0  1  0  0  0  0  0  0  0  0
  -46.3920  -21.6040   75.1900 C   0  0  0  1  0  0  0  0  0  0  0  0
  -47.0635  -20.9775   75.7583 H   0  0  0  1  0  0  0  0  0  0  0  0
  -45.1510  -21.0990   74.7710 C   0  0  0  1  0  0  0  0  0  0  0  0
  -44.8607  -20.0922   75.0329 H   0  0  0  1  0  0  0  0  0  0  0  0
  -44.2390  -19.1780   71.9410 O   0  0  0  1  0  0  0  0  0  0  0  0
  -44.8310  -19.3810   69.2410 N   0  0  0  1  0  0  0  0  0  0  0  0
  -45.3418  -18.7187   69.8071 H   0  0  0  1  0  0  0  0  0  0  0  0
  -44.6870  -19.1000   67.8890 C   0  0  0  1  0  0  0  0  0  0  0  0
  -44.0790  -19.8190   67.1090 O   0  0  0  1  0  0  0  0  0  0  0  0
  -45.4070  -17.8340   67.4640 C   0  0  0  1  0  0  0  0  0  0  0  0
  -45.5191  -17.1446   68.3008 H   0  0  0  1  0  0  0  0  0  0  0  0
  -46.7920  -18.2790   66.9880 C   0  0  0  1  0  0  0  0  0  0  0  0
  -47.9390  -17.9030   67.6910 C   0  0  0  1  0  0  0  0  0  0  0  0
  -47.8686  -17.2440   68.5437 H   0  0  0  1  0  0  0  0  0  0  0  0
  -49.1880  -18.3970   67.2700 C   0  0  0  1  0  0  0  0  0  0  0  0
  -50.0790  -18.1102   67.8088 H   0  0  0  1  0  0  0  0  0  0  0  0
  -46.9160  -19.1540   65.8530 C   0  0  0  1  0  0  0  0  0  0  0  0
  -46.0285  -19.4383   65.3071 H   0  0  0  1  0  0  0  0  0  0  0  0
  -48.1600  -19.6460   65.4390 C   0  0  0  1  0  0  0  0  0  0  0  0
  -48.2363  -20.3059   64.5875 H   0  0  0  1  0  0  0  0  0  0  0  0
  -49.3010  -19.2650   66.1510 C   0  0  0  1  0  0  0  0  0  0  0  0
  -50.2712  -19.6315   65.8496 H   0  0  0  1  0  0  0  0  0  0  0  0
  -44.6090  -16.9290   66.5050 C   0  0  0  1  0  0  0  0  0  0  0  0
  -43.2450  -16.6910   66.7460 C   0  0  0  1  0  0  0  0  0  0  0  0
  -42.7509  -17.1929   67.5647 H   0  0  0  1  0  0  0  0  0  0  0  0
  -42.5140  -15.8010   65.9270 C   0  0  0  1  0  0  0  0  0  0  0  0
  -41.4684  -15.6253   66.1325 H   0  0  0  1  0  0  0  0  0  0  0  0
  -43.1280  -15.1420   64.8500 C   0  0  0  1  0  0  0  0  0  0  0  0
  -42.5627  -14.4605   64.2316 H   0  0  0  1  0  0  0  0  0  0  0  0
  -44.4780  -15.3790   64.5890 C   0  0  0  1  0  0  0  0  0  0  0  0
  -44.9601  -14.8861   63.7577 H   0  0  0  1  0  0  0  0  0  0  0  0
  -45.2150  -16.2600   65.4070 C   0  0  0  1  0  0  0  0  0  0  0  0
  -46.2603  -16.4297   65.1951 H   0  0  0  1  0  0  0  0  0  0  0  0
  -55.7360  -15.3797   78.1910 O   0  0  0  1  0  0  0  0  0  0  0  0
  1  2  1  0  0  0  0
  1  3  1  0  0  0  0
  1  4  1  0  0  0  0
  1 14  1  0  0  0  0
  4  5  1  0  0  0  0
  4  6  1  0  0  0  0
  6  7  1  0  0  0  0
  6 92  2  0  0  0  0
  7  8  1  0  0  0  0
  7  9  1  0  0  0  0
  7 10  1  0  0  0  0
 10 11  1  0  0  0  0
 10 12  1  0  0  0  0
 10 13  1  0  0  0  0
 14 15  1  0  0  0  0
 14 16  1  0  0  0  0
 14 17  1  0  0  0  0
 17 18  1  0  0  0  0
 17 19  1  0  0  0  0
 17 20  1  0  0  0  0
 20 21  1  0  0  0  0
 20 22  1  0  0  0  0
 20 23  1  0  0  0  0
 23 24  1  0  0  0  0
 23 25  1  0  0  0  0
 25 26  2  0  0  0  0
 25 27  1  0  0  0  0
 27 28  1  0  0  0  0
 27 29  1  0  0  0  0
 29 30  1  0  0  0  0
 29 33  2  0  0  0  0
 30 31  1  0  0  0  0
 30 32  1  0  0  0  0
 33 34  1  0  0  0  0
 34 35  1  0  0  0  0
 34 36  1  0  0  0  0
 34 37  1  0  0  0  0
 37 38  1  0  0  0  0
 37 39  1  0  0  0  0
 37 40  1  0  0  0  0
 40 41  1  0  0  0  0
 40 42  1  0  0  0  0
 40 43  1  0  0  0  0
 43 44  1  0  0  0  0
 43 45  1  0  0  0  0
 43 64  1  0  0  0  0
 45 46  1  0  0  0  0
 45 63  2  0  0  0  0
 46 47  1  0  0  0  0
 46 48  1  0  0  0  0
 48 49  1  0  0  0  0
 48 50  1  0  0  0  0
 48 51  1  0  0  0  0
 51 52  1  0  0  0  0
 51 61  2  0  0  0  0
 52 53  1  0  0  0  0
 52 54  2  0  0  0  0
 54 55  1  0  0  0  0
 54 56  1  0  0  0  0
 56 57  1  0  0  0  0
 56 59  2  0  0  0  0
 57 58  1  0  0  0  0
 59 60  1  0  0  0  0
 59 61  1  0  0  0  0
 61 62  1  0  0  0  0
 64 65  1  0  0  0  0
 64 66  1  0  0  0  0
 66 67  2  0  0  0  0
 66 68  1  0  0  0  0
 68 69  1  0  0  0  0
 68 70  1  0  0  0  0
 68 81  1  0  0  0  0
 70 71  2  0  0  0  0
 70 75  1  0  0  0  0
 71 72  1  0  0  0  0
 71 73  1  0  0  0  0
 73 74  1  0  0  0  0
 73 79  2  0  0  0  0
 75 76  1  0  0  0  0
 75 77  2  0  0  0  0
 77 78  1  0  0  0  0
 77 79  1  0  0  0  0
 79 80  1  0  0  0  0
 81 82  1  0  0  0  0
 81 90  2  0  0  0  0
 82 83  1  0  0  0  0
 82 84  2  0  0  0  0
 84 85  1  0  0  0  0
 84 86  1  0  0  0  0
 86 87  1  0  0  0  0
 86 88  2  0  0  0  0
 88 89  1  0  0  0  0
 88 90  1  0  0  0  0
 90 91  1  0  0  0  0
M  END
> <ConfScore>
-0.673869 

> <SampleByParts>
10 7 6 92 4 1 14 17 20 23 25 26 27 29 30 33

$$$$
NPY1_MK299_12302016.pdb.B
  MOE2014           3D

 92 94  0  0  0  0  0  0  0  0999 V2000
  -54.7109  -16.5510   75.7636 C   0  0  0  1  0  0  0  0  0  0  0  0
  -53.7743  -16.1926   76.2002 H   0  0  0  1  0  0  0  0  0  0  0  0
  -55.4716  -15.7768   75.9091 H   0  0  0  1  0  0  0  0  0  0  0  0
  -55.1631  -17.7334   76.4802 N   0  0  0  1  0  0  0  0  0  0  0  0
  -55.7848  -18.3678   75.9931 H   0  0  0  1  0  0  0  0  0  0  0  0
  -54.8678  -18.1326   77.7556 C   0  0  0  1  0  0  0  0  0  0  0  0
  -55.5632  -19.3758   78.2760 C   0  0  0  1  0  0  0  0  0  0  0  0
  -54.8007  -20.1116   78.5531 H   0  0  0  1  0  0  0  0  0  0  0  0
  -56.1814  -19.7998   77.4784 H   0  0  0  1  0  0  0  0  0  0  0  0
  -56.4385  -19.0880   79.4827 C   0  0  0  1  0  0  0  0  0  0  0  0
  -56.9342  -20.0026   79.8225 H   0  0  0  1  0  0  0  0  0  0  0  0
  -57.2090  -18.3514   79.2378 H   0  0  0  1  0  0  0  0  0  0  0  0
  -55.8463  -18.6905   80.3133 H   0  0  0  1  0  0  0  0  0  0  0  0
  -54.5400  -16.8543   74.2804 C   0  0  0  1  0  0  0  0  0  0  0  0
  -55.4888  -17.2392   73.8913 H   0  0  0  1  0  0  0  0  0  0  0  0
  -54.3409  -15.9245   73.7324 H   0  0  0  1  0  0  0  0  0  0  0  0
  -53.4095  -17.8584   74.0133 C   0  0  0  1  0  0  0  0  0  0  0  0
  -52.4670  -17.4583   74.3871 H   0  0  0  1  0  0  0  0  0  0  0  0
  -53.6360  -18.7933   74.5259 H   0  0  0  1  0  0  0  0  0  0  0  0
  -53.2736  -18.1359   72.4873 C   0  0  0  1  0  0  0  0  0  0  0  0
  -53.1369  -17.1939   71.9560 H   0  0  0  1  0  0  0  0  0  0  0  0
  -54.1751  -18.6298   72.1247 H   0  0  0  1  0  0  0  0  0  0  0  0
  -52.1157  -19.0001   72.2574 N   0  0  0  1  0  0  0  0  0  0  0  0
  -51.5856  -19.2678   73.0743 H   0  0  0  1  0  0  0  0  0  0  0  0
  -51.6594  -19.4991   71.0244 C   0  0  0  1  0  0  0  0  0  0  0  0
  -52.2595  -19.2132   69.9748 O   0  0  0  1  0  0  0  0  0  0  0  0
  -50.4600  -20.2550   71.1740 N   0  0  0  1  0  0  0  0  0  0  0  0
  -50.1228  -20.3188   72.1239 H   0  0  0  1  0  0  0  0  0  0  0  0
  -49.6900  -20.9060   70.2590 C   0  0  0  1  0  0  0  0  0  0  0  0
  -50.2570  -20.8250   69.0000 N   0  0  0  1  0  0  0  0  0  0  0  0
  -49.8842  -21.3783   68.2417 H   0  0  0  1  0  0  0  0  0  0  0  0
  -51.0438  -20.2125   68.8389 H   0  0  0  1  0  0  0  0  0  0  0  0
  -48.6290  -21.7900   70.2920 N   0  0  0  1  0  0  0  0  0  0  0  0
  -47.7070  -22.1200   71.3230 C   0  0  0  1  0  0  0  0  0  0  0  0
  -48.1435  -21.9395   72.3054 H   0  0  0  1  0  0  0  0  0  0  0  0
  -47.3992  -23.1630   71.2482 H   0  0  0  1  0  0  0  0  0  0  0  0
  -46.5220  -21.1840   71.0740 C   0  0  0  1  0  0  0  0  0  0  0  0
  -46.9258  -20.2178   70.7716 H   0  0  0  1  0  0  0  0  0  0  0  0
  -45.9869  -21.0750   72.0173 H   0  0  0  1  0  0  0  0  0  0  0  0
  -45.4860  -21.6160   69.9960 C   0  0  0  1  0  0  0  0  0  0  0  0
  -45.9831  -21.6765   69.0278 H   0  0  0  1  0  0  0  0  0  0  0  0
  -45.0840  -22.5942   70.2597 H   0  0  0  1  0  0  0  0  0  0  0  0
  -44.2930  -20.5720   69.9030 C   0  0  0  1  0  0  0  0  0  0  0  0
  -43.4175  -20.9189   69.3542 H   0  0  0  1  0  0  0  0  0  0  0  0
  -43.9430  -20.2610   71.3950 C   0  0  0  1  0  0  0  0  0  0  0  0
  -43.2680  -21.2970   72.0370 N   0  0  0  1  0  0  0  0  0  0  0  0
  -42.9631  -22.0791   71.4753 H   0  0  0  1  0  0  0  0  0  0  0  0
  -42.9760  -21.3290   73.4430 C   0  0  0  1  0  0  0  0  0  0  0  0
  -42.1220  -21.9707   73.6596 H   0  0  0  1  0  0  0  0  0  0  0  0
  -42.7882  -20.3295   73.8353 H   0  0  0  1  0  0  0  0  0  0  0  0
  -44.2750  -21.9160   74.0000 C   0  0  0  1  0  0  0  0  0  0  0  0
  -44.6710  -23.2570   73.6750 C   0  0  0  1  0  0  0  0  0  0  0  0
  -44.0095  -23.8778   73.0890 H   0  0  0  1  0  0  0  0  0  0  0  0
  -45.9140  -23.7810   74.1090 C   0  0  0  1  0  0  0  0  0  0  0  0
  -46.2001  -24.7938   73.8667 H   0  0  0  1  0  0  0  0  0  0  0  0
  -46.7720  -22.9500   74.8660 C   0  0  0  1  0  0  0  0  0  0  0  0
  -48.0010  -23.3600   75.3380 O   0  0  0  1  0  0  0  0  0  0  0  0
  -48.4837  -22.6994   75.8401 H   0  0  0  1  0  0  0  0  0  0  0  0
  -46.3920  -21.6040   75.1900 C   0  0  0  1  0  0  0  0  0  0  0  0
  -47.0635  -20.9775   75.7583 H   0  0  0  1  0  0  0  0  0  0  0  0
  -45.1510  -21.0990   74.7710 C   0  0  0  1  0  0  0  0  0  0  0  0
  -44.8607  -20.0922   75.0329 H   0  0  0  1  0  0  0  0  0  0  0  0
  -44.2390  -19.1780   71.9410 O   0  0  0  1  0  0  0  0  0  0  0  0
  -44.8310  -19.3810   69.2410 N   0  0  0  1  0  0  0  0  0  0  0  0
  -45.3418  -18.7187   69.8071 H   0  0  0  1  0  0  0  0  0  0  0  0
  -44.6870  -19.1000   67.8890 C   0  0  0  1  0  0  0  0  0  0  0  0
  -44.0790  -19.8190   67.1090 O   0  0  0  1  0  0  0  0  0  0  0  0
  -45.4070  -17.8340   67.4640 C   0  0  0  1  0  0  0  0  0  0  0  0
  -45.5191  -17.1446   68.3008 H   0  0  0  1  0  0  0  0  0  0  0  0
  -46.7920  -18.2790   66.9880 C   0  0  0  1  0  0  0  0  0  0  0  0
  -47.9390  -17.9030   67.6910 C   0  0  0  1  0  0  0  0  0  0  0  0
  -47.8686  -17.2440   68.5437 H   0  0  0  1  0  0  0  0  0  0  0  0
  -49.1880  -18.3970   67.2700 C   0  0  0  1  0  0  0  0  0  0  0  0
  -50.0790  -18.1102   67.8088 H   0  0  0  1  0  0  0  0  0  0  0  0
  -46.9160  -19.1540   65.8530 C   0  0  0  1  0  0  0  0  0  0  0  0
  -46.0285  -19.4383   65.3071 H   0  0  0  1  0  0  0  0  0  0  0  0
  -48.1600  -19.6460   65.4390 C   0  0  0  1  0  0  0  0  0  0  0  0
  -48.2363  -20.3059   64.5875 H   0  0  0  1  0  0  0  0  0  0  0  0
  -49.3010  -19.2650   66.1510 C   0  0  0  1  0  0  0  0  0  0  0  0
  -50.2712  -19.6315   65.8496 H   0  0  0  1  0  0  0  0  0  0  0  0
  -44.6090  -16.9290   66.5050 C   0  0  0  1  0  0  0  0  0  0  0  0
  -43.2450  -16.6910   66.7460 C   0  0  0  1  0  0  0  0  0  0  0  0
  -42.7509  -17.1929   67.5647 H   0  0  0  1  0  0  0  0  0  0  0  0
  -42.5140  -15.8010   65.9270 C   0  0  0  1  0  0  0  0  0  0  0  0
  -41.4684  -15.6253   66.1325 H   0  0  0  1  0  0  0  0  0  0  0  0
  -43.1280  -15.1420   64.8500 C   0  0  0  1  0  0  0  0  0  0  0  0
  -42.5627  -14.4605   64.2316 H   0  0  0  1  0  0  0  0  0  0  0  0
  -44.4780  -15.3790   64.5890 C   0  0  0  1  0  0  0  0  0  0  0  0
  -44.9601  -14.8861   63.7577 H   0  0  0  1  0  0  0  0  0  0  0  0
  -45.2150  -16.2600   65.4070 C   0  0  0  1  0  0  0  0  0  0  0  0
  -46.2603  -16.4297   65.1951 H   0  0  0  1  0  0  0  0  0  0  0  0
  -54.0547  -17.4853   78.4139 O   0  0  0  1  0  0  0  0  0  0  0  0
  1  2  1  0  0  0  0
  1  3  1  0  0  0  0
  1  4  1  0  0  0  0
  1 14  1  0  0  0  0
  4  5  1  0  0  0  0
  4  6  1  0  0  0  0
  6  7  1  0  0  0  0
  6 92  2  0  0  0  0
  7  8  1  0  0  0  0
  7  9  1  0  0  0  0
  7 10  1  0  0  0  0
 10 11  1  0  0  0  0
 10 12  1  0  0  0  0
 10 13  1  0  0  0  0
 14 15  1  0  0  0  0
 14 16  1  0  0  0  0
 14 17  1  0  0  0  0
 17 18  1  0  0  0  0
 17 19  1  0  0  0  0
 17 20  1  0  0  0  0
 20 21  1  0  0  0  0
 20 22  1  0  0  0  0
 20 23  1  0  0  0  0
 23 24  1  0  0  0  0
 23 25  1  0  0  0  0
 25 26  2  0  0  0  0
 25 27  1  0  0  0  0
 27 28  1  0  0  0  0
 27 29  1  0  0  0  0
 29 30  1  0  0  0  0
 29 33  2  0  0  0  0
 30 31  1  0  0  0  0
 30 32  1  0  0  0  0
 33 34  1  0  0  0  0
 34 35  1  0  0  0  0
 34 36  1  0  0  0  0
 34 37  1  0  0  0  0
 37 38  1  0  0  0  0
 37 39  1  0  0  0  0
 37 40  1  0  0  0  0
 40 41  1  0  0  0  0
 40 42  1  0  0  0  0
 40 43  1  0  0  0  0
 43 44  1  0  0  0  0
 43 45  1  0  0  0  0
 43 64  1  0  0  0  0
 45 46  1  0  0  0  0
 45 63  2  0  0  0  0
 46 47  1  0  0  0  0
 46 48  1  0  0  0  0
 48 49  1  0  0  0  0
 48 50  1  0  0  0  0
 48 51  1  0  0  0  0
 51 52  1  0  0  0  0
 51 61  2  0  0  0  0
 52 53  1  0  0  0  0
 52 54  2  0  0  0  0
 54 55  1  0  0  0  0
 54 56  1  0  0  0  0
 56 57  1  0  0  0  0
 56 59  2  0  0  0  0
 57 58  1  0  0  0  0
 59 60  1  0  0  0  0
 59 61  1  0  0  0  0
 61 62  1  0  0  0  0
 64 65  1  0  0  0  0
 64 66  1  0  0  0  0
 66 67  2  0  0  0  0
 66 68  1  0  0  0  0
 68 69  1  0  0  0  0
 68 70  1  0  0  0  0
 68 81  1  0  0  0  0
 70 71  2  0  0  0  0
 70 75  1  0  0  0  0
 71 72  1  0  0  0  0
 71 73  1  0  0  0  0
 73 74  1  0  0  0  0
 73 79  2  0  0  0  0
 75 76  1  0  0  0  0
 75 77  2  0  0  0  0
 77 78  1  0  0  0  0
 77 79  1  0  0  0  0
 79 80  1  0  0  0  0
 81 82  1  0  0  0  0
 81 90  2  0  0  0  0
 82 83  1  0  0  0  0
 82 84  2  0  0  0  0
 84 85  1  0  0  0  0
 84 86  1  0  0  0  0
 86 87  1  0  0  0  0
 86 88  2  0  0  0  0
 88 89  1  0  0  0  0
 88 90  1  0  0  0  0
 90 91  1  0  0  0  0
M  END
> <ConfScore>
-0.668567 

> <SampleByParts>
10 7 6 92 4 1 14 17 20 23 25 26 27 29 30 33

$$$$
NPY1_MK299_12302016.pdb.B
  MOE2014           3D

 92 94  0  0  0  0  0  0  0  0999 V2000
  -54.7501  -16.6081   75.7737 C   0  0  0  1  0  0  0  0  0  0  0  0
  -53.8928  -16.0014   76.0790 H   0  0  0  1  0  0  0  0  0  0  0  0
  -55.6591  -16.0221   75.9452 H   0  0  0  1  0  0  0  0  0  0  0  0
  -54.8384  -17.7893   76.6182 N   0  0  0  1  0  0  0  0  0  0  0  0
  -55.2605  -18.6198   76.2202 H   0  0  0  1  0  0  0  0  0  0  0  0
  -54.4250  -17.9553   77.9123 C   0  0  0  1  0  0  0  0  0  0  0  0
  -54.6696  -19.3071   78.5547 C   0  0  0  1  0  0  0  0  0  0  0  0
  -53.7081  -19.7157   78.8838 H   0  0  0  1  0  0  0  0  0  0  0  0
  -55.0981  -19.9846   77.8094 H   0  0  0  1  0  0  0  0  0  0  0  0
  -55.6076  -19.2218   79.7455 C   0  0  0  1  0  0  0  0  0  0  0  0
  -55.7719  -20.2148   80.1749 H   0  0  0  1  0  0  0  0  0  0  0  0
  -56.5773  -18.8122   79.4485 H   0  0  0  1  0  0  0  0  0  0  0  0
  -55.1952  -18.5748   80.5264 H   0  0  0  1  0  0  0  0  0  0  0  0
  -54.6432  -17.0035   74.3063 C   0  0  0  1  0  0  0  0  0  0  0  0
  -55.5287  -17.5892   74.0372 H   0  0  0  1  0  0  0  0  0  0  0  0
  -54.6699  -16.1047   73.6772 H   0  0  0  1  0  0  0  0  0  0  0  0
  -53.3664  -17.8017   74.0053 C   0  0  0  1  0  0  0  0  0  0  0  0
  -52.4914  -17.2104   74.2753 H   0  0  0  1  0  0  0  0  0  0  0  0
  -53.3770  -18.7223   74.5888 H   0  0  0  1  0  0  0  0  0  0  0  0
  -53.2896  -18.1604   72.4921 C   0  0  0  1  0  0  0  0  0  0  0  0
  -53.1909  -17.2471   71.9053 H   0  0  0  1  0  0  0  0  0  0  0  0
  -54.1970  -18.6864   72.1955 H   0  0  0  1  0  0  0  0  0  0  0  0
  -52.1280  -19.0191   72.2603 N   0  0  0  1  0  0  0  0  0  0  0  0
  -51.6050  -19.2978   73.0781 H   0  0  0  1  0  0  0  0  0  0  0  0
  -51.6594  -19.4991   71.0244 C   0  0  0  1  0  0  0  0  0  0  0  0
  -52.2504  -19.1989   69.9736 O   0  0  0  1  0  0  0  0  0  0  0  0
  -50.4600  -20.2550   71.1740 N   0  0  0  1  0  0  0  0  0  0  0  0
  -50.1228  -20.3188   72.1239 H   0  0  0  1  0  0  0  0  0  0  0  0
  -49.6900  -20.9060   70.2590 C   0  0  0  1  0  0  0  0  0  0  0  0
  -50.2570  -20.8250   69.0000 N   0  0  0  1  0  0  0  0  0  0  0  0
  -49.8842  -21.3783   68.2417 H   0  0  0  1  0  0  0  0  0  0  0  0
  -51.0438  -20.2125   68.8389 H   0  0  0  1  0  0  0  0  0  0  0  0
  -48.6290  -21.7900   70.2920 N   0  0  0  1  0  0  0  0  0  0  0  0
  -47.7070  -22.1200   71.3230 C   0  0  0  1  0  0  0  0  0  0  0  0
  -48.1435  -21.9395   72.3054 H   0  0  0  1  0  0  0  0  0  0  0  0
  -47.3992  -23.1630   71.2482 H   0  0  0  1  0  0  0  0  0  0  0  0
  -46.5220  -21.1840   71.0740 C   0  0  0  1  0  0  0  0  0  0  0  0
  -46.9258  -20.2178   70.7716 H   0  0  0  1  0  0  0  0  0  0  0  0
  -45.9869  -21.0750   72.0173 H   0  0  0  1  0  0  0  0  0  0  0  0
  -45.4860  -21.6160   69.9960 C   0  0  0  1  0  0  0  0  0  0  0  0
  -45.9831  -21.6765   69.0278 H   0  0  0  1  0  0  0  0  0  0  0  0
  -45.0840  -22.5942   70.2597 H   0  0  0  1  0  0  0  0  0  0  0  0
  -44.2930  -20.5720   69.9030 C   0  0  0  1  0  0  0  0  0  0  0  0
  -43.4175  -20.9189   69.3542 H   0  0  0  1  0  0  0  0  0  0  0  0
  -43.9430  -20.2610   71.3950 C   0  0  0  1  0  0  0  0  0  0  0  0
  -43.2680  -21.2970   72.0370 N   0  0  0  1  0  0  0  0  0  0  0  0
  -42.9631  -22.0791   71.4753 H   0  0  0  1  0  0  0  0  0  0  0  0
  -42.9760  -21.3290   73.4430 C   0  0  0  1  0  0  0  0  0  0  0  0
  -42.1220  -21.9707   73.6596 H   0  0  0  1  0  0  0  0  0  0  0  0
  -42.7882  -20.3295   73.8353 H   0  0  0  1  0  0  0  0  0  0  0  0
  -44.2750  -21.9160   74.0000 C   0  0  0  1  0  0  0  0  0  0  0  0
  -44.6710  -23.2570   73.6750 C   0  0  0  1  0  0  0  0  0  0  0  0
  -44.0095  -23.8778   73.0890 H   0  0  0  1  0  0  0  0  0  0  0  0
  -45.9140  -23.7810   74.1090 C   0  0  0  1  0  0  0  0  0  0  0  0
  -46.2001  -24.7938   73.8667 H   0  0  0  1  0  0  0  0  0  0  0  0
  -46.7720  -22.9500   74.8660 C   0  0  0  1  0  0  0  0  0  0  0  0
  -48.0010  -23.3600   75.3380 O   0  0  0  1  0  0  0  0  0  0  0  0
  -48.4837  -22.6994   75.8401 H   0  0  0  1  0  0  0  0  0  0  0  0
  -46.3920  -21.6040   75.1900 C   0  0  0  1  0  0  0  0  0  0  0  0
  -47.0635  -20.9775   75.7583 H   0  0  0  1  0  0  0  0  0  0  0  0
  -45.1510  -21.0990   74.7710 C   0  0  0  1  0  0  0  0  0  0  0  0
  -44.8607  -20.0922   75.0329 H   0  0  0  1  0  0  0  0  0  0  0  0
  -44.2390  -19.1780   71.9410 O   0  0  0  1  0  0  0  0  0  0  0  0
  -44.8310  -19.3810   69.2410 N   0  0  0  1  0  0  0  0  0  0  0  0
  -45.3418  -18.7187   69.8071 H   0  0  0  1  0  0  0  0  0  0  0  0
  -44.6870  -19.1000   67.8890 C   0  0  0  1  0  0  0  0  0  0  0  0
  -44.0790  -19.8190   67.1090 O   0  0  0  1  0  0  0  0  0  0  0  0
  -45.4070  -17.8340   67.4640 C   0  0  0  1  0  0  0  0  0  0  0  0
  -45.5191  -17.1446   68.3008 H   0  0  0  1  0  0  0  0  0  0  0  0
  -46.7920  -18.2790   66.9880 C   0  0  0  1  0  0  0  0  0  0  0  0
  -47.9390  -17.9030   67.6910 C   0  0  0  1  0  0  0  0  0  0  0  0
  -47.8686  -17.2440   68.5437 H   0  0  0  1  0  0  0  0  0  0  0  0
  -49.1880  -18.3970   67.2700 C   0  0  0  1  0  0  0  0  0  0  0  0
  -50.0790  -18.1102   67.8088 H   0  0  0  1  0  0  0  0  0  0  0  0
  -46.9160  -19.1540   65.8530 C   0  0  0  1  0  0  0  0  0  0  0  0
  -46.0285  -19.4383   65.3071 H   0  0  0  1  0  0  0  0  0  0  0  0
  -48.1600  -19.6460   65.4390 C   0  0  0  1  0  0  0  0  0  0  0  0
  -48.2363  -20.3059   64.5875 H   0  0  0  1  0  0  0  0  0  0  0  0
  -49.3010  -19.2650   66.1510 C   0  0  0  1  0  0  0  0  0  0  0  0
  -50.2712  -19.6315   65.8496 H   0  0  0  1  0  0  0  0  0  0  0  0
  -44.6090  -16.9290   66.5050 C   0  0  0  1  0  0  0  0  0  0  0  0
  -43.2450  -16.6910   66.7460 C   0  0  0  1  0  0  0  0  0  0  0  0
  -42.7509  -17.1929   67.5647 H   0  0  0  1  0  0  0  0  0  0  0  0
  -42.5140  -15.8010   65.9270 C   0  0  0  1  0  0  0  0  0  0  0  0
  -41.4684  -15.6253   66.1325 H   0  0  0  1  0  0  0  0  0  0  0  0
  -43.1280  -15.1420   64.8500 C   0  0  0  1  0  0  0  0  0  0  0  0
  -42.5627  -14.4605   64.2316 H   0  0  0  1  0  0  0  0  0  0  0  0
  -44.4780  -15.3790   64.5890 C   0  0  0  1  0  0  0  0  0  0  0  0
  -44.9601  -14.8861   63.7577 H   0  0  0  1  0  0  0  0  0  0  0  0
  -45.2150  -16.2600   65.4070 C   0  0  0  1  0  0  0  0  0  0  0  0
  -46.2603  -16.4297   65.1951 H   0  0  0  1  0  0  0  0  0  0  0  0
  -53.8702  -17.0213   78.4895 O   0  0  0  1  0  0  0  0  0  0  0  0
  1  2  1  0  0  0  0
  1  3  1  0  0  0  0
  1  4  1  0  0  0  0
  1 14  1  0  0  0  0
  4  5  1  0  0  0  0
  4  6  1  0  0  0  0
  6  7  1  0  0  0  0
  6 92  2  0  0  0  0
  7  8  1  0  0  0  0
  7  9  1  0  0  0  0
  7 10  1  0  0  0  0
 10 11  1  0  0  0  0
 10 12  1  0  0  0  0
 10 13  1  0  0  0  0
 14 15  1  0  0  0  0
 14 16  1  0  0  0  0
 14 17  1  0  0  0  0
 17 18  1  0  0  0  0
 17 19  1  0  0  0  0
 17 20  1  0  0  0  0
 20 21  1  0  0  0  0
 20 22  1  0  0  0  0
 20 23  1  0  0  0  0
 23 24  1  0  0  0  0
 23 25  1  0  0  0  0
 25 26  2  0  0  0  0
 25 27  1  0  0  0  0
 27 28  1  0  0  0  0
 27 29  1  0  0  0  0
 29 30  1  0  0  0  0
 29 33  2  0  0  0  0
 30 31  1  0  0  0  0
 30 32  1  0  0  0  0
 33 34  1  0  0  0  0
 34 35  1  0  0  0  0
 34 36  1  0  0  0  0
 34 37  1  0  0  0  0
 37 38  1  0  0  0  0
 37 39  1  0  0  0  0
 37 40  1  0  0  0  0
 40 41  1  0  0  0  0
 40 42  1  0  0  0  0
 40 43  1  0  0  0  0
 43 44  1  0  0  0  0
 43 45  1  0  0  0  0
 43 64  1  0  0  0  0
 45 46  1  0  0  0  0
 45 63  2  0  0  0  0
 46 47  1  0  0  0  0
 46 48  1  0  0  0  0
 48 49  1  0  0  0  0
 48 50  1  0  0  0  0
 48 51  1  0  0  0  0
 51 52  1  0  0  0  0
 51 61  2  0  0  0  0
 52 53  1  0  0  0  0
 52 54  2  0  0  0  0
 54 55  1  0  0  0  0
 54 56  1  0  0  0  0
 56 57  1  0  0  0  0
 56 59  2  0  0  0  0
 57 58  1  0  0  0  0
 59 60  1  0  0  0  0
 59 61  1  0  0  0  0
 61 62  1  0  0  0  0
 64 65  1  0  0  0  0
 64 66  1  0  0  0  0
 66 67  2  0  0  0  0
 66 68  1  0  0  0  0
 68 69  1  0  0  0  0
 68 70  1  0  0  0  0
 68 81  1  0  0  0  0
 70 71  2  0  0  0  0
 70 75  1  0  0  0  0
 71 72  1  0  0  0  0
 71 73  1  0  0  0  0
 73 74  1  0  0  0  0
 73 79  2  0  0  0  0
 75 76  1  0  0  0  0
 75 77  2  0  0  0  0
 77 78  1  0  0  0  0
 77 79  1  0  0  0  0
 79 80  1  0  0  0  0
 81 82  1  0  0  0  0
 81 90  2  0  0  0  0
 82 83  1  0  0  0  0
 82 84  2  0  0  0  0
 84 85  1  0  0  0  0
 84 86  1  0  0  0  0
 86 87  1  0  0  0  0
 86 88  2  0  0  0  0
 88 89  1  0  0  0  0
 88 90  1  0  0  0  0
 90 91  1  0  0  0  0
M  END
> <ConfScore>
-0.668567 

> <SampleByParts>
10 7 6 92 4 1 14 17 20 23 25 26 27 29 30 33

$$$$
NPY1_MK299_12302016.pdb.B
  MOE2014           3D

 92 94  0  0  0  0  0  0  0  0999 V2000
  -54.5819  -16.3295   75.7026 C   0  0  0  1  0  0  0  0  0  0  0  0
  -53.6632  -15.8867   76.0977 H   0  0  0  1  0  0  0  0  0  0  0  0
  -55.3944  -15.6091   75.8441 H   0  0  0  1  0  0  0  0  0  0  0  0
  -54.9238  -17.5149   76.4733 N   0  0  0  1  0  0  0  0  0  0  0  0
  -55.4570  -18.2395   76.0074 H   0  0  0  1  0  0  0  0  0  0  0  0
  -54.6258  -17.8104   77.7760 C   0  0  0  1  0  0  0  0  0  0  0  0
  -55.1579  -19.1162   78.3343 C   0  0  0  1  0  0  0  0  0  0  0  0
  -54.3277  -19.8267   78.4106 H   0  0  0  1  0  0  0  0  0  0  0  0
  -55.9016  -19.5240   77.6424 H   0  0  0  1  0  0  0  0  0  0  0  0
  -55.7937  -18.9453   79.7024 C   0  0  0  1  0  0  0  0  0  0  0  0
  -56.1778  -19.9026   80.0679 H   0  0  0  1  0  0  0  0  0  0  0  0
  -56.6255  -18.2364   79.6592 H   0  0  0  1  0  0  0  0  0  0  0  0
  -55.0680  -18.5671   80.4297 H   0  0  0  1  0  0  0  0  0  0  0  0
  -54.4299  -16.6738   74.2263 C   0  0  0  1  0  0  0  0  0  0  0  0
  -55.3699  -17.1095   73.8709 H   0  0  0  1  0  0  0  0  0  0  0  0
  -54.2809  -15.7551   73.6447 H   0  0  0  1  0  0  0  0  0  0  0  0
  -53.2647  -17.6394   73.9660 C   0  0  0  1  0  0  0  0  0  0  0  0
  -52.3275  -17.1753   74.2731 H   0  0  0  1  0  0  0  0  0  0  0  0
  -53.4239  -18.5517   74.5409 H   0  0  0  1  0  0  0  0  0  0  0  0
  -53.1809  -18.0004   72.4537 C   0  0  0  1  0  0  0  0  0  0  0  0
  -53.0234  -17.0932   71.8704 H   0  0  0  1  0  0  0  0  0  0  0  0
  -54.1098  -18.4770   72.1405 H   0  0  0  1  0  0  0  0  0  0  0  0
  -52.0629  -18.9197   72.2406 N   0  0  0  1  0  0  0  0  0  0  0  0
  -51.5213  -19.1654   73.0568 H   0  0  0  1  0  0  0  0  0  0  0  0
  -51.6594  -19.4991   71.0244 C   0  0  0  1  0  0  0  0  0  0  0  0
  -52.2990  -19.2741   69.9833 O   0  0  0  1  0  0  0  0  0  0  0  0
  -50.4600  -20.2550   71.1740 N   0  0  0  1  0  0  0  0  0  0  0  0
  -50.1228  -20.3188   72.1239 H   0  0  0  1  0  0  0  0  0  0  0  0
  -49.6900  -20.9060   70.2590 C   0  0  0  1  0  0  0  0  0  0  0  0
  -50.2570  -20.8250   69.0000 N   0  0  0  1  0  0  0  0  0  0  0  0
  -49.8842  -21.3783   68.2417 H   0  0  0  1  0  0  0  0  0  0  0  0
  -51.0438  -20.2125   68.8389 H   0  0  0  1  0  0  0  0  0  0  0  0
  -48.6290  -21.7900   70.2920 N   0  0  0  1  0  0  0  0  0  0  0  0
  -47.7070  -22.1200   71.3230 C   0  0  0  1  0  0  0  0  0  0  0  0
  -48.1435  -21.9395   72.3054 H   0  0  0  1  0  0  0  0  0  0  0  0
  -47.3992  -23.1630   71.2482 H   0  0  0  1  0  0  0  0  0  0  0  0
  -46.5220  -21.1840   71.0740 C   0  0  0  1  0  0  0  0  0  0  0  0
  -46.9258  -20.2178   70.7716 H   0  0  0  1  0  0  0  0  0  0  0  0
  -45.9869  -21.0750   72.0173 H   0  0  0  1  0  0  0  0  0  0  0  0
  -45.4860  -21.6160   69.9960 C   0  0  0  1  0  0  0  0  0  0  0  0
  -45.9831  -21.6765   69.0278 H   0  0  0  1  0  0  0  0  0  0  0  0
  -45.0840  -22.5942   70.2597 H   0  0  0  1  0  0  0  0  0  0  0  0
  -44.2930  -20.5720   69.9030 C   0  0  0  1  0  0  0  0  0  0  0  0
  -43.4175  -20.9189   69.3542 H   0  0  0  1  0  0  0  0  0  0  0  0
  -43.9430  -20.2610   71.3950 C   0  0  0  1  0  0  0  0  0  0  0  0
  -43.2680  -21.2970   72.0370 N   0  0  0  1  0  0  0  0  0  0  0  0
  -42.9631  -22.0791   71.4753 H   0  0  0  1  0  0  0  0  0  0  0  0
  -42.9760  -21.3290   73.4430 C   0  0  0  1  0  0  0  0  0  0  0  0
  -42.1220  -21.9707   73.6596 H   0  0  0  1  0  0  0  0  0  0  0  0
  -42.7882  -20.3295   73.8353 H   0  0  0  1  0  0  0  0  0  0  0  0
  -44.2750  -21.9160   74.0000 C   0  0  0  1  0  0  0  0  0  0  0  0
  -44.6710  -23.2570   73.6750 C   0  0  0  1  0  0  0  0  0  0  0  0
  -44.0095  -23.8778   73.0890 H   0  0  0  1  0  0  0  0  0  0  0  0
  -45.9140  -23.7810   74.1090 C   0  0  0  1  0  0  0  0  0  0  0  0
  -46.2001  -24.7938   73.8667 H   0  0  0  1  0  0  0  0  0  0  0  0
  -46.7720  -22.9500   74.8660 C   0  0  0  1  0  0  0  0  0  0  0  0
  -48.0010  -23.3600   75.3380 O   0  0  0  1  0  0  0  0  0  0  0  0
  -48.4837  -22.6994   75.8401 H   0  0  0  1  0  0  0  0  0  0  0  0
  -46.3920  -21.6040   75.1900 C   0  0  0  1  0  0  0  0  0  0  0  0
  -47.0635  -20.9775   75.7583 H   0  0  0  1  0  0  0  0  0  0  0  0
  -45.1510  -21.0990   74.7710 C   0  0  0  1  0  0  0  0  0  0  0  0
  -44.8607  -20.0922   75.0329 H   0  0  0  1  0  0  0  0  0  0  0  0
  -44.2390  -19.1780   71.9410 O   0  0  0  1  0  0  0  0  0  0  0  0
  -44.8310  -19.3810   69.2410 N   0  0  0  1  0  0  0  0  0  0  0  0
  -45.3418  -18.7187   69.8071 H   0  0  0  1  0  0  0  0  0  0  0  0
  -44.6870  -19.1000   67.8890 C   0  0  0  1  0  0  0  0  0  0  0  0
  -44.0790  -19.8190   67.1090 O   0  0  0  1  0  0  0  0  0  0  0  0
  -45.4070  -17.8340   67.4640 C   0  0  0  1  0  0  0  0  0  0  0  0
  -45.5191  -17.1446   68.3008 H   0  0  0  1  0  0  0  0  0  0  0  0
  -46.7920  -18.2790   66.9880 C   0  0  0  1  0  0  0  0  0  0  0  0
  -47.9390  -17.9030   67.6910 C   0  0  0  1  0  0  0  0  0  0  0  0
  -47.8686  -17.2440   68.5437 H   0  0  0  1  0  0  0  0  0  0  0  0
  -49.1880  -18.3970   67.2700 C   0  0  0  1  0  0  0  0  0  0  0  0
  -50.0790  -18.1102   67.8088 H   0  0  0  1  0  0  0  0  0  0  0  0
  -46.9160  -19.1540   65.8530 C   0  0  0  1  0  0  0  0  0  0  0  0
  -46.0285  -19.4383   65.3071 H   0  0  0  1  0  0  0  0  0  0  0  0
  -48.1600  -19.6460   65.4390 C   0  0  0  1  0  0  0  0  0  0  0  0
  -48.2363  -20.3059   64.5875 H   0  0  0  1  0  0  0  0  0  0  0  0
  -49.3010  -19.2650   66.1510 C   0  0  0  1  0  0  0  0  0  0  0  0
  -50.2712  -19.6315   65.8496 H   0  0  0  1  0  0  0  0  0  0  0  0
  -44.6090  -16.9290   66.5050 C   0  0  0  1  0  0  0  0  0  0  0  0
  -43.2450  -16.6910   66.7460 C   0  0  0  1  0  0  0  0  0  0  0  0
  -42.7509  -17.1929   67.5647 H   0  0  0  1  0  0  0  0  0  0  0  0
  -42.5140  -15.8010   65.9270 C   0  0  0  1  0  0  0  0  0  0  0  0
  -41.4684  -15.6253   66.1325 H   0  0  0  1  0  0  0  0  0  0  0  0
  -43.1280  -15.1420   64.8500 C   0  0  0  1  0  0  0  0  0  0  0  0
  -42.5627  -14.4605   64.2316 H   0  0  0  1  0  0  0  0  0  0  0  0
  -44.4780  -15.3790   64.5890 C   0  0  0  1  0  0  0  0  0  0  0  0
  -44.9601  -14.8861   63.7577 H   0  0  0  1  0  0  0  0  0  0  0  0
  -45.2150  -16.2600   65.4070 C   0  0  0  1  0  0  0  0  0  0  0  0
  -46.2603  -16.4297   65.1951 H   0  0  0  1  0  0  0  0  0  0  0  0
  -53.9398  -17.0243   78.4279 O   0  0  0  1  0  0  0  0  0  0  0  0
  1  2  1  0  0  0  0
  1  3  1  0  0  0  0
  1  4  1  0  0  0  0
  1 14  1  0  0  0  0
  4  5  1  0  0  0  0
  4  6  1  0  0  0  0
  6  7  1  0  0  0  0
  6 92  2  0  0  0  0
  7  8  1  0  0  0  0
  7  9  1  0  0  0  0
  7 10  1  0  0  0  0
 10 11  1  0  0  0  0
 10 12  1  0  0  0  0
 10 13  1  0  0  0  0
 14 15  1  0  0  0  0
 14 16  1  0  0  0  0
 14 17  1  0  0  0  0
 17 18  1  0  0  0  0
 17 19  1  0  0  0  0
 17 20  1  0  0  0  0
 20 21  1  0  0  0  0
 20 22  1  0  0  0  0
 20 23  1  0  0  0  0
 23 24  1  0  0  0  0
 23 25  1  0  0  0  0
 25 26  2  0  0  0  0
 25 27  1  0  0  0  0
 27 28  1  0  0  0  0
 27 29  1  0  0  0  0
 29 30  1  0  0  0  0
 29 33  2  0  0  0  0
 30 31  1  0  0  0  0
 30 32  1  0  0  0  0
 33 34  1  0  0  0  0
 34 35  1  0  0  0  0
 34 36  1  0  0  0  0
 34 37  1  0  0  0  0
 37 38  1  0  0  0  0
 37 39  1  0  0  0  0
 37 40  1  0  0  0  0
 40 41  1  0  0  0  0
 40 42  1  0  0  0  0
 40 43  1  0  0  0  0
 43 44  1  0  0  0  0
 43 45  1  0  0  0  0
 43 64  1  0  0  0  0
 45 46  1  0  0  0  0
 45 63  2  0  0  0  0
 46 47  1  0  0  0  0
 46 48  1  0  0  0  0
 48 49  1  0  0  0  0
 48 50  1  0  0  0  0
 48 51  1  0  0  0  0
 51 52  1  0  0  0  0
 51 61  2  0  0  0  0
 52 53  1  0  0  0  0
 52 54  2  0  0  0  0
 54 55  1  0  0  0  0
 54 56  1  0  0  0  0
 56 57  1  0  0  0  0
 56 59  2  0  0  0  0
 57 58  1  0  0  0  0
 59 60  1  0  0  0  0
 59 61  1  0  0  0  0
 61 62  1  0  0  0  0
 64 65  1  0  0  0  0
 64 66  1  0  0  0  0
 66 67  2  0  0  0  0
 66 68  1  0  0  0  0
 68 69  1  0  0  0  0
 68 70  1  0  0  0  0
 68 81  1  0  0  0  0
 70 71  2  0  0  0  0
 70 75  1  0  0  0  0
 71 72  1  0  0  0  0
 71 73  1  0  0  0  0
 73 74  1  0  0  0  0
 73 79  2  0  0  0  0
 75 76  1  0  0  0  0
 75 77  2  0  0  0  0
 77 78  1  0  0  0  0
 77 79  1  0  0  0  0
 79 80  1  0  0  0  0
 81 82  1  0  0  0  0
 81 90  2  0  0  0  0
 82 83  1  0  0  0  0
 82 84  2  0  0  0  0
 84 85  1  0  0  0  0
 84 86  1  0  0  0  0
 86 87  1  0  0  0  0
 86 88  2  0  0  0  0
 88 89  1  0  0  0  0
 88 90  1  0  0  0  0
 90 91  1  0  0  0  0
M  END
> <ConfScore>
-0.668567 

> <SampleByParts>
10 7 6 92 4 1 14 17 20 23 25 26 27 29 30 33

$$$$
NPY1_MK299_12302016.pdb.B
  MOE2014           3D

 92 94  0  0  0  0  0  0  0  0999 V2000
  -54.6766  -17.3347   76.3303 C   0  0  0  1  0  0  0  0  0  0  0  0
  -54.5277  -16.3930   75.7943 H   0  0  0  1  0  0  0  0  0  0  0  0
  -55.5825  -17.8090   75.9387 H   0  0  0  1  0  0  0  0  0  0  0  0
  -54.9127  -17.0627   77.7397 N   0  0  0  1  0  0  0  0  0  0  0  0
  -54.2701  -17.4682   78.4097 H   0  0  0  1  0  0  0  0  0  0  0  0
  -55.9046  -16.3181   78.3184 C   0  0  0  1  0  0  0  0  0  0  0  0
  -55.8930  -16.1954   79.8299 C   0  0  0  1  0  0  0  0  0  0  0  0
  -55.5081  -17.1297   80.2526 H   0  0  0  1  0  0  0  0  0  0  0  0
  -56.9183  -16.0503   80.1845 H   0  0  0  1  0  0  0  0  0  0  0  0
  -55.0332  -15.0403   80.3112 C   0  0  0  1  0  0  0  0  0  0  0  0
  -55.0587  -14.9735   81.4032 H   0  0  0  1  0  0  0  0  0  0  0  0
  -55.3911  -14.0916   79.9013 H   0  0  0  1  0  0  0  0  0  0  0  0
  -53.9913  -15.1684   80.0001 H   0  0  0  1  0  0  0  0  0  0  0  0
  -53.4769  -18.2573   76.1548 C   0  0  0  1  0  0  0  0  0  0  0  0
  -52.6410  -17.8578   76.7391 H   0  0  0  1  0  0  0  0  0  0  0  0
  -53.7021  -19.2434   76.5804 H   0  0  0  1  0  0  0  0  0  0  0  0
  -53.0689  -18.4156   74.6830 C   0  0  0  1  0  0  0  0  0  0  0  0
  -53.9064  -18.8144   74.1106 H   0  0  0  1  0  0  0  0  0  0  0  0
  -52.7884  -17.4404   74.2851 H   0  0  0  1  0  0  0  0  0  0  0  0
  -51.8574  -19.3849   74.5525 C   0  0  0  1  0  0  0  0  0  0  0  0
  -52.1284  -20.3630   74.9500 H   0  0  0  1  0  0  0  0  0  0  0  0
  -51.0105  -18.9874   75.1119 H   0  0  0  1  0  0  0  0  0  0  0  0
  -51.4949  -19.5133   73.1409 N   0  0  0  1  0  0  0  0  0  0  0  0
  -52.0605  -18.9966   72.4829 H   0  0  0  1  0  0  0  0  0  0  0  0
  -50.4456  -20.2771   72.5993 C   0  0  0  1  0  0  0  0  0  0  0  0
  -49.6833  -20.9104   73.3486 O   0  0  0  1  0  0  0  0  0  0  0  0
  -50.4600  -20.2550   71.1740 N   0  0  0  1  0  0  0  0  0  0  0  0
  -51.1638  -19.6515   70.7732 H   0  0  0  1  0  0  0  0  0  0  0  0
  -49.6900  -20.9060   70.2590 C   0  0  0  1  0  0  0  0  0  0  0  0
  -50.2570  -20.8250   69.0000 N   0  0  0  1  0  0  0  0  0  0  0  0
  -49.8842  -21.3783   68.2417 H   0  0  0  1  0  0  0  0  0  0  0  0
  -51.0438  -20.2125   68.8389 H   0  0  0  1  0  0  0  0  0  0  0  0
  -48.6290  -21.7900   70.2920 N   0  0  0  1  0  0  0  0  0  0  0  0
  -47.7070  -22.1200   71.3230 C   0  0  0  1  0  0  0  0  0  0  0  0
  -48.1435  -21.9395   72.3054 H   0  0  0  1  0  0  0  0  0  0  0  0
  -47.3992  -23.1630   71.2482 H   0  0  0  1  0  0  0  0  0  0  0  0
  -46.5220  -21.1840   71.0740 C   0  0  0  1  0  0  0  0  0  0  0  0
  -46.9258  -20.2178   70.7716 H   0  0  0  1  0  0  0  0  0  0  0  0
  -45.9869  -21.0750   72.0173 H   0  0  0  1  0  0  0  0  0  0  0  0
  -45.4860  -21.6160   69.9960 C   0  0  0  1  0  0  0  0  0  0  0  0
  -45.9831  -21.6765   69.0278 H   0  0  0  1  0  0  0  0  0  0  0  0
  -45.0840  -22.5942   70.2597 H   0  0  0  1  0  0  0  0  0  0  0  0
  -44.2930  -20.5720   69.9030 C   0  0  0  1  0  0  0  0  0  0  0  0
  -43.4175  -20.9189   69.3542 H   0  0  0  1  0  0  0  0  0  0  0  0
  -43.9430  -20.2610   71.3950 C   0  0  0  1  0  0  0  0  0  0  0  0
  -43.2680  -21.2970   72.0370 N   0  0  0  1  0  0  0  0  0  0  0  0
  -42.9631  -22.0791   71.4753 H   0  0  0  1  0  0  0  0  0  0  0  0
  -42.9760  -21.3290   73.4430 C   0  0  0  1  0  0  0  0  0  0  0  0
  -42.1220  -21.9707   73.6596 H   0  0  0  1  0  0  0  0  0  0  0  0
  -42.7882  -20.3295   73.8353 H   0  0  0  1  0  0  0  0  0  0  0  0
  -44.2750  -21.9160   74.0000 C   0  0  0  1  0  0  0  0  0  0  0  0
  -44.6710  -23.2570   73.6750 C   0  0  0  1  0  0  0  0  0  0  0  0
  -44.0095  -23.8778   73.0890 H   0  0  0  1  0  0  0  0  0  0  0  0
  -45.9140  -23.7810   74.1090 C   0  0  0  1  0  0  0  0  0  0  0  0
  -46.2001  -24.7938   73.8667 H   0  0  0  1  0  0  0  0  0  0  0  0
  -46.7720  -22.9500   74.8660 C   0  0  0  1  0  0  0  0  0  0  0  0
  -48.0010  -23.3600   75.3380 O   0  0  0  1  0  0  0  0  0  0  0  0
  -48.4837  -22.6994   75.8401 H   0  0  0  1  0  0  0  0  0  0  0  0
  -46.3920  -21.6040   75.1900 C   0  0  0  1  0  0  0  0  0  0  0  0
  -47.0635  -20.9775   75.7583 H   0  0  0  1  0  0  0  0  0  0  0  0
  -45.1510  -21.0990   74.7710 C   0  0  0  1  0  0  0  0  0  0  0  0
  -44.8607  -20.0922   75.0329 H   0  0  0  1  0  0  0  0  0  0  0  0
  -44.2390  -19.1780   71.9410 O   0  0  0  1  0  0  0  0  0  0  0  0
  -44.8310  -19.3810   69.2410 N   0  0  0  1  0  0  0  0  0  0  0  0
  -45.3418  -18.7187   69.8071 H   0  0  0  1  0  0  0  0  0  0  0  0
  -44.6870  -19.1000   67.8890 C   0  0  0  1  0  0  0  0  0  0  0  0
  -44.0790  -19.8190   67.1090 O   0  0  0  1  0  0  0  0  0  0  0  0
  -45.4070  -17.8340   67.4640 C   0  0  0  1  0  0  0  0  0  0  0  0
  -45.5191  -17.1446   68.3008 H   0  0  0  1  0  0  0  0  0  0  0  0
  -46.7920  -18.2790   66.9880 C   0  0  0  1  0  0  0  0  0  0  0  0
  -47.9390  -17.9030   67.6910 C   0  0  0  1  0  0  0  0  0  0  0  0
  -47.8686  -17.2440   68.5437 H   0  0  0  1  0  0  0  0  0  0  0  0
  -49.1880  -18.3970   67.2700 C   0  0  0  1  0  0  0  0  0  0  0  0
  -50.0790  -18.1102   67.8088 H   0  0  0  1  0  0  0  0  0  0  0  0
  -46.9160  -19.1540   65.8530 C   0  0  0  1  0  0  0  0  0  0  0  0
  -46.0285  -19.4383   65.3071 H   0  0  0  1  0  0  0  0  0  0  0  0
  -48.1600  -19.6460   65.4390 C   0  0  0  1  0  0  0  0  0  0  0  0
  -48.2363  -20.3059   64.5875 H   0  0  0  1  0  0  0  0  0  0  0  0
  -49.3010  -19.2650   66.1510 C   0  0  0  1  0  0  0  0  0  0  0  0
  -50.2712  -19.6315   65.8496 H   0  0  0  1  0  0  0  0  0  0  0  0
  -44.6090  -16.9290   66.5050 C   0  0  0  1  0  0  0  0  0  0  0  0
  -43.2450  -16.6910   66.7460 C   0  0  0  1  0  0  0  0  0  0  0  0
  -42.7509  -17.1929   67.5647 H   0  0  0  1  0  0  0  0  0  0  0  0
  -42.5140  -15.8010   65.9270 C   0  0  0  1  0  0  0  0  0  0  0  0
  -41.4684  -15.6253   66.1325 H   0  0  0  1  0  0  0  0  0  0  0  0
  -43.1280  -15.1420   64.8500 C   0  0  0  1  0  0  0  0  0  0  0  0
  -42.5627  -14.4605   64.2316 H   0  0  0  1  0  0  0  0  0  0  0  0
  -44.4780  -15.3790   64.5890 C   0  0  0  1  0  0  0  0  0  0  0  0
  -44.9601  -14.8861   63.7577 H   0  0  0  1  0  0  0  0  0  0  0  0
  -45.2150  -16.2600   65.4070 C   0  0  0  1  0  0  0  0  0  0  0  0
  -46.2603  -16.4297   65.1951 H   0  0  0  1  0  0  0  0  0  0  0  0
  -56.7451  -15.7772   77.6011 O   0  0  0  1  0  0  0  0  0  0  0  0
  1  2  1  0  0  0  0
  1  3  1  0  0  0  0
  1  4  1  0  0  0  0
  1 14  1  0  0  0  0
  4  5  1  0  0  0  0
  4  6  1  0  0  0  0
  6  7  1  0  0  0  0
  6 92  2  0  0  0  0
  7  8  1  0  0  0  0
  7  9  1  0  0  0  0
  7 10  1  0  0  0  0
 10 11  1  0  0  0  0
 10 12  1  0  0  0  0
 10 13  1  0  0  0  0
 14 15  1  0  0  0  0
 14 16  1  0  0  0  0
 14 17  1  0  0  0  0
 17 18  1  0  0  0  0
 17 19  1  0  0  0  0
 17 20  1  0  0  0  0
 20 21  1  0  0  0  0
 20 22  1  0  0  0  0
 20 23  1  0  0  0  0
 23 24  1  0  0  0  0
 23 25  1  0  0  0  0
 25 26  2  0  0  0  0
 25 27  1  0  0  0  0
 27 28  1  0  0  0  0
 27 29  1  0  0  0  0
 29 30  1  0  0  0  0
 29 33  2  0  0  0  0
 30 31  1  0  0  0  0
 30 32  1  0  0  0  0
 33 34  1  0  0  0  0
 34 35  1  0  0  0  0
 34 36  1  0  0  0  0
 34 37  1  0  0  0  0
 37 38  1  0  0  0  0
 37 39  1  0  0  0  0
 37 40  1  0  0  0  0
 40 41  1  0  0  0  0
 40 42  1  0  0  0  0
 40 43  1  0  0  0  0
 43 44  1  0  0  0  0
 43 45  1  0  0  0  0
 43 64  1  0  0  0  0
 45 46  1  0  0  0  0
 45 63  2  0  0  0  0
 46 47  1  0  0  0  0
 46 48  1  0  0  0  0
 48 49  1  0  0  0  0
 48 50  1  0  0  0  0
 48 51  1  0  0  0  0
 51 52  1  0  0  0  0
 51 61  2  0  0  0  0
 52 53  1  0  0  0  0
 52 54  2  0  0  0  0
 54 55  1  0  0  0  0
 54 56  1  0  0  0  0
 56 57  1  0  0  0  0
 56 59  2  0  0  0  0
 57 58  1  0  0  0  0
 59 60  1  0  0  0  0
 59 61  1  0  0  0  0
 61 62  1  0  0  0  0
 64 65  1  0  0  0  0
 64 66  1  0  0  0  0
 66 67  2  0  0  0  0
 66 68  1  0  0  0  0
 68 69  1  0  0  0  0
 68 70  1  0  0  0  0
 68 81  1  0  0  0  0
 70 71  2  0  0  0  0
 70 75  1  0  0  0  0
 71 72  1  0  0  0  0
 71 73  1  0  0  0  0
 73 74  1  0  0  0  0
 73 79  2  0  0  0  0
 75 76  1  0  0  0  0
 75 77  2  0  0  0  0
 77 78  1  0  0  0  0
 77 79  1  0  0  0  0
 79 80  1  0  0  0  0
 81 82  1  0  0  0  0
 81 90  2  0  0  0  0
 82 83  1  0  0  0  0
 82 84  2  0  0  0  0
 84 85  1  0  0  0  0
 84 86  1  0  0  0  0
 86 87  1  0  0  0  0
 86 88  2  0  0  0  0
 88 89  1  0  0  0  0
 88 90  1  0  0  0  0
 90 91  1  0  0  0  0
M  END
> <ConfScore>
-0.665991 

> <SampleByParts>
10 7 6 92 4 1 14 17 20 23 25 26 27 29 30 33

$$$$
NPY1_MK299_12302016.pdb.B
  MOE2014           3D

 92 94  0  0  0  0  0  0  0  0999 V2000
  -54.3087  -16.8507   76.3215 C   0  0  0  1  0  0  0  0  0  0  0  0
  -54.3109  -16.0011   75.6327 H   0  0  0  1  0  0  0  0  0  0  0  0
  -55.2059  -17.4478   76.1272 H   0  0  0  1  0  0  0  0  0  0  0  0
  -54.4047  -16.3698   77.6910 N   0  0  0  1  0  0  0  0  0  0  0  0
  -53.6393  -16.5856   78.3186 H   0  0  0  1  0  0  0  0  0  0  0  0
  -55.4054  -15.6465   78.2814 C   0  0  0  1  0  0  0  0  0  0  0  0
  -55.2157  -15.2485   79.7324 C   0  0  0  1  0  0  0  0  0  0  0  0
  -54.6615  -16.0438   80.2424 H   0  0  0  1  0  0  0  0  0  0  0  0
  -56.1970  -15.1497   80.2071 H   0  0  0  1  0  0  0  0  0  0  0  0
  -54.4586  -13.9409   79.8806 C   0  0  0  1  0  0  0  0  0  0  0  0
  -54.3520  -13.6782   80.9376 H   0  0  0  1  0  0  0  0  0  0  0  0
  -54.9865  -13.1263   79.3766 H   0  0  0  1  0  0  0  0  0  0  0  0
  -53.4576  -14.0133   79.4430 H   0  0  0  1  0  0  0  0  0  0  0  0
  -53.0569  -17.6991   76.1364 C   0  0  0  1  0  0  0  0  0  0  0  0
  -52.1972  -17.1417   76.5236 H   0  0  0  1  0  0  0  0  0  0  0  0
  -53.1310  -18.6077   76.7475 H   0  0  0  1  0  0  0  0  0  0  0  0
  -52.8222  -18.0863   74.6692 C   0  0  0  1  0  0  0  0  0  0  0  0
  -53.6664  -18.6714   74.3043 H   0  0  0  1  0  0  0  0  0  0  0  0
  -52.7245  -17.1788   74.0734 H   0  0  0  1  0  0  0  0  0  0  0  0
  -51.5210  -18.9295   74.5275 C   0  0  0  1  0  0  0  0  0  0  0  0
  -51.6091  -19.8389   75.1219 H   0  0  0  1  0  0  0  0  0  0  0  0
  -50.6691  -18.3472   74.8785 H   0  0  0  1  0  0  0  0  0  0  0  0
  -51.3273  -19.2811   73.1206 N   0  0  0  1  0  0  0  0  0  0  0  0
  -52.0264  -18.9460   72.4733 H   0  0  0  1  0  0  0  0  0  0  0  0
  -50.2748  -20.0341   72.5701 C   0  0  0  1  0  0  0  0  0  0  0  0
  -49.3669  -20.4647   73.3007 O   0  0  0  1  0  0  0  0  0  0  0  0
  -50.4600  -20.2550   71.1740 N   0  0  0  1  0  0  0  0  0  0  0  0
  -51.3102  -19.8599   70.7983 H   0  0  0  1  0  0  0  0  0  0  0  0
  -49.6900  -20.9060   70.2590 C   0  0  0  1  0  0  0  0  0  0  0  0
  -50.2570  -20.8250   69.0000 N   0  0  0  1  0  0  0  0  0  0  0  0
  -49.8842  -21.3783   68.2417 H   0  0  0  1  0  0  0  0  0  0  0  0
  -51.0438  -20.2125   68.8389 H   0  0  0  1  0  0  0  0  0  0  0  0
  -48.6290  -21.7900   70.2920 N   0  0  0  1  0  0  0  0  0  0  0  0
  -47.7070  -22.1200   71.3230 C   0  0  0  1  0  0  0  0  0  0  0  0
  -48.1435  -21.9395   72.3054 H   0  0  0  1  0  0  0  0  0  0  0  0
  -47.3992  -23.1630   71.2482 H   0  0  0  1  0  0  0  0  0  0  0  0
  -46.5220  -21.1840   71.0740 C   0  0  0  1  0  0  0  0  0  0  0  0
  -46.9258  -20.2178   70.7716 H   0  0  0  1  0  0  0  0  0  0  0  0
  -45.9869  -21.0750   72.0173 H   0  0  0  1  0  0  0  0  0  0  0  0
  -45.4860  -21.6160   69.9960 C   0  0  0  1  0  0  0  0  0  0  0  0
  -45.9831  -21.6765   69.0278 H   0  0  0  1  0  0  0  0  0  0  0  0
  -45.0840  -22.5942   70.2597 H   0  0  0  1  0  0  0  0  0  0  0  0
  -44.2930  -20.5720   69.9030 C   0  0  0  1  0  0  0  0  0  0  0  0
  -43.4175  -20.9189   69.3542 H   0  0  0  1  0  0  0  0  0  0  0  0
  -43.9430  -20.2610   71.3950 C   0  0  0  1  0  0  0  0  0  0  0  0
  -43.2680  -21.2970   72.0370 N   0  0  0  1  0  0  0  0  0  0  0  0
  -42.9631  -22.0791   71.4753 H   0  0  0  1  0  0  0  0  0  0  0  0
  -42.9760  -21.3290   73.4430 C   0  0  0  1  0  0  0  0  0  0  0  0
  -42.1220  -21.9707   73.6596 H   0  0  0  1  0  0  0  0  0  0  0  0
  -42.7882  -20.3295   73.8353 H   0  0  0  1  0  0  0  0  0  0  0  0
  -44.2750  -21.9160   74.0000 C   0  0  0  1  0  0  0  0  0  0  0  0
  -44.6710  -23.2570   73.6750 C   0  0  0  1  0  0  0  0  0  0  0  0
  -44.0095  -23.8778   73.0890 H   0  0  0  1  0  0  0  0  0  0  0  0
  -45.9140  -23.7810   74.1090 C   0  0  0  1  0  0  0  0  0  0  0  0
  -46.2001  -24.7938   73.8667 H   0  0  0  1  0  0  0  0  0  0  0  0
  -46.7720  -22.9500   74.8660 C   0  0  0  1  0  0  0  0  0  0  0  0
  -48.0010  -23.3600   75.3380 O   0  0  0  1  0  0  0  0  0  0  0  0
  -48.4837  -22.6994   75.8401 H   0  0  0  1  0  0  0  0  0  0  0  0
  -46.3920  -21.6040   75.1900 C   0  0  0  1  0  0  0  0  0  0  0  0
  -47.0635  -20.9775   75.7583 H   0  0  0  1  0  0  0  0  0  0  0  0
  -45.1510  -21.0990   74.7710 C   0  0  0  1  0  0  0  0  0  0  0  0
  -44.8607  -20.0922   75.0329 H   0  0  0  1  0  0  0  0  0  0  0  0
  -44.2390  -19.1780   71.9410 O   0  0  0  1  0  0  0  0  0  0  0  0
  -44.8310  -19.3810   69.2410 N   0  0  0  1  0  0  0  0  0  0  0  0
  -45.3418  -18.7187   69.8071 H   0  0  0  1  0  0  0  0  0  0  0  0
  -44.6870  -19.1000   67.8890 C   0  0  0  1  0  0  0  0  0  0  0  0
  -44.0790  -19.8190   67.1090 O   0  0  0  1  0  0  0  0  0  0  0  0
  -45.4070  -17.8340   67.4640 C   0  0  0  1  0  0  0  0  0  0  0  0
  -45.5191  -17.1446   68.3008 H   0  0  0  1  0  0  0  0  0  0  0  0
  -46.7920  -18.2790   66.9880 C   0  0  0  1  0  0  0  0  0  0  0  0
  -47.9390  -17.9030   67.6910 C   0  0  0  1  0  0  0  0  0  0  0  0
  -47.8686  -17.2440   68.5437 H   0  0  0  1  0  0  0  0  0  0  0  0
  -49.1880  -18.3970   67.2700 C   0  0  0  1  0  0  0  0  0  0  0  0
  -50.0790  -18.1102   67.8088 H   0  0  0  1  0  0  0  0  0  0  0  0
  -46.9160  -19.1540   65.8530 C   0  0  0  1  0  0  0  0  0  0  0  0
  -46.0285  -19.4383   65.3071 H   0  0  0  1  0  0  0  0  0  0  0  0
  -48.1600  -19.6460   65.4390 C   0  0  0  1  0  0  0  0  0  0  0  0
  -48.2363  -20.3059   64.5875 H   0  0  0  1  0  0  0  0  0  0  0  0
  -49.3010  -19.2650   66.1510 C   0  0  0  1  0  0  0  0  0  0  0  0
  -50.2712  -19.6315   65.8496 H   0  0  0  1  0  0  0  0  0  0  0  0
  -44.6090  -16.9290   66.5050 C   0  0  0  1  0  0  0  0  0  0  0  0
  -43.2450  -16.6910   66.7460 C   0  0  0  1  0  0  0  0  0  0  0  0
  -42.7509  -17.1929   67.5647 H   0  0  0  1  0  0  0  0  0  0  0  0
  -42.5140  -15.8010   65.9270 C   0  0  0  1  0  0  0  0  0  0  0  0
  -41.4684  -15.6253   66.1325 H   0  0  0  1  0  0  0  0  0  0  0  0
  -43.1280  -15.1420   64.8500 C   0  0  0  1  0  0  0  0  0  0  0  0
  -42.5627  -14.4605   64.2316 H   0  0  0  1  0  0  0  0  0  0  0  0
  -44.4780  -15.3790   64.5890 C   0  0  0  1  0  0  0  0  0  0  0  0
  -44.9601  -14.8861   63.7577 H   0  0  0  1  0  0  0  0  0  0  0  0
  -45.2150  -16.2600   65.4070 C   0  0  0  1  0  0  0  0  0  0  0  0
  -46.2603  -16.4297   65.1951 H   0  0  0  1  0  0  0  0  0  0  0  0
  -56.3970  -15.3427   77.6196 O   0  0  0  1  0  0  0  0  0  0  0  0
  1  2  1  0  0  0  0
  1  3  1  0  0  0  0
  1  4  1  0  0  0  0
  1 14  1  0  0  0  0
  4  5  1  0  0  0  0
  4  6  1  0  0  0  0
  6  7  1  0  0  0  0
  6 92  2  0  0  0  0
  7  8  1  0  0  0  0
  7  9  1  0  0  0  0
  7 10  1  0  0  0  0
 10 11  1  0  0  0  0
 10 12  1  0  0  0  0
 10 13  1  0  0  0  0
 14 15  1  0  0  0  0
 14 16  1  0  0  0  0
 14 17  1  0  0  0  0
 17 18  1  0  0  0  0
 17 19  1  0  0  0  0
 17 20  1  0  0  0  0
 20 21  1  0  0  0  0
 20 22  1  0  0  0  0
 20 23  1  0  0  0  0
 23 24  1  0  0  0  0
 23 25  1  0  0  0  0
 25 26  2  0  0  0  0
 25 27  1  0  0  0  0
 27 28  1  0  0  0  0
 27 29  1  0  0  0  0
 29 30  1  0  0  0  0
 29 33  2  0  0  0  0
 30 31  1  0  0  0  0
 30 32  1  0  0  0  0
 33 34  1  0  0  0  0
 34 35  1  0  0  0  0
 34 36  1  0  0  0  0
 34 37  1  0  0  0  0
 37 38  1  0  0  0  0
 37 39  1  0  0  0  0
 37 40  1  0  0  0  0
 40 41  1  0  0  0  0
 40 42  1  0  0  0  0
 40 43  1  0  0  0  0
 43 44  1  0  0  0  0
 43 45  1  0  0  0  0
 43 64  1  0  0  0  0
 45 46  1  0  0  0  0
 45 63  2  0  0  0  0
 46 47  1  0  0  0  0
 46 48  1  0  0  0  0
 48 49  1  0  0  0  0
 48 50  1  0  0  0  0
 48 51  1  0  0  0  0
 51 52  1  0  0  0  0
 51 61  2  0  0  0  0
 52 53  1  0  0  0  0
 52 54  2  0  0  0  0
 54 55  1  0  0  0  0
 54 56  1  0  0  0  0
 56 57  1  0  0  0  0
 56 59  2  0  0  0  0
 57 58  1  0  0  0  0
 59 60  1  0  0  0  0
 59 61  1  0  0  0  0
 61 62  1  0  0  0  0
 64 65  1  0  0  0  0
 64 66  1  0  0  0  0
 66 67  2  0  0  0  0
 66 68  1  0  0  0  0
 68 69  1  0  0  0  0
 68 70  1  0  0  0  0
 68 81  1  0  0  0  0
 70 71  2  0  0  0  0
 70 75  1  0  0  0  0
 71 72  1  0  0  0  0
 71 73  1  0  0  0  0
 73 74  1  0  0  0  0
 73 79  2  0  0  0  0
 75 76  1  0  0  0  0
 75 77  2  0  0  0  0
 77 78  1  0  0  0  0
 77 79  1  0  0  0  0
 79 80  1  0  0  0  0
 81 82  1  0  0  0  0
 81 90  2  0  0  0  0
 82 83  1  0  0  0  0
 82 84  2  0  0  0  0
 84 85  1  0  0  0  0
 84 86  1  0  0  0  0
 86 87  1  0  0  0  0
 86 88  2  0  0  0  0
 88 89  1  0  0  0  0
 88 90  1  0  0  0  0
 90 91  1  0  0  0  0
M  END
> <ConfScore>
-0.665991 

> <SampleByParts>
10 7 6 92 4 1 14 17 20 23 25 26 27 29 30 33

$$$$
NPY1_MK299_12302016.pdb.B
  MOE2014           3D

 92 94  0  0  0  0  0  0  0  0999 V2000
  -54.5395  -17.2773   76.4077 C   0  0  0  1  0  0  0  0  0  0  0  0
  -54.5855  -16.3995   75.7568 H   0  0  0  1  0  0  0  0  0  0  0  0
  -55.3970  -17.9176   76.1756 H   0  0  0  1  0  0  0  0  0  0  0  0
  -54.6789  -16.8643   77.7955 N   0  0  0  1  0  0  0  0  0  0  0  0
  -53.9086  -17.0618   78.4232 H   0  0  0  1  0  0  0  0  0  0  0  0
  -55.7276  -16.2289   78.4036 C   0  0  0  1  0  0  0  0  0  0  0  0
  -55.5835  -15.8984   79.8766 C   0  0  0  1  0  0  0  0  0  0  0  0
  -56.4622  -15.3259   80.1930 H   0  0  0  1  0  0  0  0  0  0  0  0
  -54.6943  -15.2760   80.0179 H   0  0  0  1  0  0  0  0  0  0  0  0
  -55.4620  -17.1410   80.7404 C   0  0  0  1  0  0  0  0  0  0  0  0
  -55.3464  -16.8653   81.7931 H   0  0  0  1  0  0  0  0  0  0  0  0
  -54.5939  -17.7370   80.4449 H   0  0  0  1  0  0  0  0  0  0  0  0
  -56.3507  -17.7738   80.6476 H   0  0  0  1  0  0  0  0  0  0  0  0
  -53.2370  -18.0405   76.2024 C   0  0  0  1  0  0  0  0  0  0  0  0
  -52.4165  -17.4506   76.6250 H   0  0  0  1  0  0  0  0  0  0  0  0
  -53.2629  -18.9781   76.7722 H   0  0  0  1  0  0  0  0  0  0  0  0
  -52.9638  -18.3474   74.7230 C   0  0  0  1  0  0  0  0  0  0  0  0
  -53.7761  -18.9502   74.3168 H   0  0  0  1  0  0  0  0  0  0  0  0
  -52.8968  -17.4094   74.1719 H   0  0  0  1  0  0  0  0  0  0  0  0
  -51.6251  -19.1265   74.5642 C   0  0  0  1  0  0  0  0  0  0  0  0
  -51.6824  -20.0660   75.1139 H   0  0  0  1  0  0  0  0  0  0  0  0
  -50.8047  -18.5255   74.9564 H   0  0  0  1  0  0  0  0  0  0  0  0
  -51.3952  -19.4025   73.1459 N   0  0  0  1  0  0  0  0  0  0  0  0
  -52.1062  -19.0811   72.5046 H   0  0  0  1  0  0  0  0  0  0  0  0
  -50.2934  -20.0658   72.5771 C   0  0  0  1  0  0  0  0  0  0  0  0
  -49.3604  -20.4573   73.2980 O   0  0  0  1  0  0  0  0  0  0  0  0
  -50.4600  -20.2550   71.1740 N   0  0  0  1  0  0  0  0  0  0  0  0
  -51.2943  -19.8326   70.7923 H   0  0  0  1  0  0  0  0  0  0  0  0
  -49.6900  -20.9060   70.2590 C   0  0  0  1  0  0  0  0  0  0  0  0
  -50.2570  -20.8250   69.0000 N   0  0  0  1  0  0  0  0  0  0  0  0
  -49.8842  -21.3783   68.2417 H   0  0  0  1  0  0  0  0  0  0  0  0
  -51.0438  -20.2125   68.8389 H   0  0  0  1  0  0  0  0  0  0  0  0
  -48.6290  -21.7900   70.2920 N   0  0  0  1  0  0  0  0  0  0  0  0
  -47.7070  -22.1200   71.3230 C   0  0  0  1  0  0  0  0  0  0  0  0
  -48.1435  -21.9395   72.3054 H   0  0  0  1  0  0  0  0  0  0  0  0
  -47.3992  -23.1630   71.2482 H   0  0  0  1  0  0  0  0  0  0  0  0
  -46.5220  -21.1840   71.0740 C   0  0  0  1  0  0  0  0  0  0  0  0
  -46.9258  -20.2178   70.7716 H   0  0  0  1  0  0  0  0  0  0  0  0
  -45.9869  -21.0750   72.0173 H   0  0  0  1  0  0  0  0  0  0  0  0
  -45.4860  -21.6160   69.9960 C   0  0  0  1  0  0  0  0  0  0  0  0
  -45.9831  -21.6765   69.0278 H   0  0  0  1  0  0  0  0  0  0  0  0
  -45.0840  -22.5942   70.2597 H   0  0  0  1  0  0  0  0  0  0  0  0
  -44.2930  -20.5720   69.9030 C   0  0  0  1  0  0  0  0  0  0  0  0
  -43.4175  -20.9189   69.3542 H   0  0  0  1  0  0  0  0  0  0  0  0
  -43.9430  -20.2610   71.3950 C   0  0  0  1  0  0  0  0  0  0  0  0
  -43.2680  -21.2970   72.0370 N   0  0  0  1  0  0  0  0  0  0  0  0
  -42.9631  -22.0791   71.4753 H   0  0  0  1  0  0  0  0  0  0  0  0
  -42.9760  -21.3290   73.4430 C   0  0  0  1  0  0  0  0  0  0  0  0
  -42.1220  -21.9707   73.6596 H   0  0  0  1  0  0  0  0  0  0  0  0
  -42.7882  -20.3295   73.8353 H   0  0  0  1  0  0  0  0  0  0  0  0
  -44.2750  -21.9160   74.0000 C   0  0  0  1  0  0  0  0  0  0  0  0
  -44.6710  -23.2570   73.6750 C   0  0  0  1  0  0  0  0  0  0  0  0
  -44.0095  -23.8778   73.0890 H   0  0  0  1  0  0  0  0  0  0  0  0
  -45.9140  -23.7810   74.1090 C   0  0  0  1  0  0  0  0  0  0  0  0
  -46.2001  -24.7938   73.8667 H   0  0  0  1  0  0  0  0  0  0  0  0
  -46.7720  -22.9500   74.8660 C   0  0  0  1  0  0  0  0  0  0  0  0
  -48.0010  -23.3600   75.3380 O   0  0  0  1  0  0  0  0  0  0  0  0
  -48.4837  -22.6994   75.8401 H   0  0  0  1  0  0  0  0  0  0  0  0
  -46.3920  -21.6040   75.1900 C   0  0  0  1  0  0  0  0  0  0  0  0
  -47.0635  -20.9775   75.7583 H   0  0  0  1  0  0  0  0  0  0  0  0
  -45.1510  -21.0990   74.7710 C   0  0  0  1  0  0  0  0  0  0  0  0
  -44.8607  -20.0922   75.0329 H   0  0  0  1  0  0  0  0  0  0  0  0
  -44.2390  -19.1780   71.9410 O   0  0  0  1  0  0  0  0  0  0  0  0
  -44.8310  -19.3810   69.2410 N   0  0  0  1  0  0  0  0  0  0  0  0
  -45.3418  -18.7187   69.8071 H   0  0  0  1  0  0  0  0  0  0  0  0
  -44.6870  -19.1000   67.8890 C   0  0  0  1  0  0  0  0  0  0  0  0
  -44.0790  -19.8190   67.1090 O   0  0  0  1  0  0  0  0  0  0  0  0
  -45.4070  -17.8340   67.4640 C   0  0  0  1  0  0  0  0  0  0  0  0
  -45.5191  -17.1446   68.3008 H   0  0  0  1  0  0  0  0  0  0  0  0
  -46.7920  -18.2790   66.9880 C   0  0  0  1  0  0  0  0  0  0  0  0
  -47.9390  -17.9030   67.6910 C   0  0  0  1  0  0  0  0  0  0  0  0
  -47.8686  -17.2440   68.5437 H   0  0  0  1  0  0  0  0  0  0  0  0
  -49.1880  -18.3970   67.2700 C   0  0  0  1  0  0  0  0  0  0  0  0
  -50.0790  -18.1102   67.8088 H   0  0  0  1  0  0  0  0  0  0  0  0
  -46.9160  -19.1540   65.8530 C   0  0  0  1  0  0  0  0  0  0  0  0
  -46.0285  -19.4383   65.3071 H   0  0  0  1  0  0  0  0  0  0  0  0
  -48.1600  -19.6460   65.4390 C   0  0  0  1  0  0  0  0  0  0  0  0
  -48.2363  -20.3059   64.5875 H   0  0  0  1  0  0  0  0  0  0  0  0
  -49.3010  -19.2650   66.1510 C   0  0  0  1  0  0  0  0  0  0  0  0
  -50.2712  -19.6315   65.8496 H   0  0  0  1  0  0  0  0  0  0  0  0
  -44.6090  -16.9290   66.5050 C   0  0  0  1  0  0  0  0  0  0  0  0
  -43.2450  -16.6910   66.7460 C   0  0  0  1  0  0  0  0  0  0  0  0
  -42.7509  -17.1929   67.5647 H   0  0  0  1  0  0  0  0  0  0  0  0
  -42.5140  -15.8010   65.9270 C   0  0  0  1  0  0  0  0  0  0  0  0
  -41.4684  -15.6253   66.1325 H   0  0  0  1  0  0  0  0  0  0  0  0
  -43.1280  -15.1420   64.8500 C   0  0  0  1  0  0  0  0  0  0  0  0
  -42.5627  -14.4605   64.2316 H   0  0  0  1  0  0  0  0  0  0  0  0
  -44.4780  -15.3790   64.5890 C   0  0  0  1  0  0  0  0  0  0  0  0
  -44.9601  -14.8861   63.7577 H   0  0  0  1  0  0  0  0  0  0  0  0
  -45.2150  -16.2600   65.4070 C   0  0  0  1  0  0  0  0  0  0  0  0
  -46.2603  -16.4297   65.1951 H   0  0  0  1  0  0  0  0  0  0  0  0
  -56.7238  -15.9453   77.7398 O   0  0  0  1  0  0  0  0  0  0  0  0
  1  2  1  0  0  0  0
  1  3  1  0  0  0  0
  1  4  1  0  0  0  0
  1 14  1  0  0  0  0
  4  5  1  0  0  0  0
  4  6  1  0  0  0  0
  6  7  1  0  0  0  0
  6 92  2  0  0  0  0
  7  8  1  0  0  0  0
  7  9  1  0  0  0  0
  7 10  1  0  0  0  0
 10 11  1  0  0  0  0
 10 12  1  0  0  0  0
 10 13  1  0  0  0  0
 14 15  1  0  0  0  0
 14 16  1  0  0  0  0
 14 17  1  0  0  0  0
 17 18  1  0  0  0  0
 17 19  1  0  0  0  0
 17 20  1  0  0  0  0
 20 21  1  0  0  0  0
 20 22  1  0  0  0  0
 20 23  1  0  0  0  0
 23 24  1  0  0  0  0
 23 25  1  0  0  0  0
 25 26  2  0  0  0  0
 25 27  1  0  0  0  0
 27 28  1  0  0  0  0
 27 29  1  0  0  0  0
 29 30  1  0  0  0  0
 29 33  2  0  0  0  0
 30 31  1  0  0  0  0
 30 32  1  0  0  0  0
 33 34  1  0  0  0  0
 34 35  1  0  0  0  0
 34 36  1  0  0  0  0
 34 37  1  0  0  0  0
 37 38  1  0  0  0  0
 37 39  1  0  0  0  0
 37 40  1  0  0  0  0
 40 41  1  0  0  0  0
 40 42  1  0  0  0  0
 40 43  1  0  0  0  0
 43 44  1  0  0  0  0
 43 45  1  0  0  0  0
 43 64  1  0  0  0  0
 45 46  1  0  0  0  0
 45 63  2  0  0  0  0
 46 47  1  0  0  0  0
 46 48  1  0  0  0  0
 48 49  1  0  0  0  0
 48 50  1  0  0  0  0
 48 51  1  0  0  0  0
 51 52  1  0  0  0  0
 51 61  2  0  0  0  0
 52 53  1  0  0  0  0
 52 54  2  0  0  0  0
 54 55  1  0  0  0  0
 54 56  1  0  0  0  0
 56 57  1  0  0  0  0
 56 59  2  0  0  0  0
 57 58  1  0  0  0  0
 59 60  1  0  0  0  0
 59 61  1  0  0  0  0
 61 62  1  0  0  0  0
 64 65  1  0  0  0  0
 64 66  1  0  0  0  0
 66 67  2  0  0  0  0
 66 68  1  0  0  0  0
 68 69  1  0  0  0  0
 68 70  1  0  0  0  0
 68 81  1  0  0  0  0
 70 71  2  0  0  0  0
 70 75  1  0  0  0  0
 71 72  1  0  0  0  0
 71 73  1  0  0  0  0
 73 74  1  0  0  0  0
 73 79  2  0  0  0  0
 75 76  1  0  0  0  0
 75 77  2  0  0  0  0
 77 78  1  0  0  0  0
 77 79  1  0  0  0  0
 79 80  1  0  0  0  0
 81 82  1  0  0  0  0
 81 90  2  0  0  0  0
 82 83  1  0  0  0  0
 82 84  2  0  0  0  0
 84 85  1  0  0  0  0
 84 86  1  0  0  0  0
 86 87  1  0  0  0  0
 86 88  2  0  0  0  0
 88 89  1  0  0  0  0
 88 90  1  0  0  0  0
 90 91  1  0  0  0  0
M  END
> <ConfScore>
-0.661371 

> <SampleByParts>
10 7 6 92 4 1 14 17 20 23 25 26 27 29 30 33

$$$$
NPY1_MK299_12302016.pdb.B
  MOE2014           3D

 92 94  0  0  0  0  0  0  0  0999 V2000
  -54.2698  -16.7866   76.3081 C   0  0  0  1  0  0  0  0  0  0  0  0
  -54.2507  -15.8959   75.6736 H   0  0  0  1  0  0  0  0  0  0  0  0
  -55.1547  -17.3742   76.0421 H   0  0  0  1  0  0  0  0  0  0  0  0
  -54.4226  -16.3918   77.6998 N   0  0  0  1  0  0  0  0  0  0  0  0
  -54.0618  -17.0202   78.4079 H   0  0  0  1  0  0  0  0  0  0  0  0
  -54.9997  -15.2634   78.2163 C   0  0  0  1  0  0  0  0  0  0  0  0
  -55.0447  -15.1316   79.7265 C   0  0  0  1  0  0  0  0  0  0  0  0
  -54.9561  -14.0713   79.9867 H   0  0  0  1  0  0  0  0  0  0  0  0
  -54.1931  -15.6673   80.1575 H   0  0  0  1  0  0  0  0  0  0  0  0
  -56.3293  -15.6833   80.3184 C   0  0  0  1  0  0  0  0  0  0  0  0
  -56.3218  -15.5843   81.4082 H   0  0  0  1  0  0  0  0  0  0  0  0
  -56.4484  -16.7421   80.0713 H   0  0  0  1  0  0  0  0  0  0  0  0
  -57.2029  -15.1484   79.9319 H   0  0  0  1  0  0  0  0  0  0  0  0
  -53.0061  -17.6166   76.1207 C   0  0  0  1  0  0  0  0  0  0  0  0
  -52.1479  -17.0275   76.4616 H   0  0  0  1  0  0  0  0  0  0  0  0
  -53.0444  -18.5018   76.7683 H   0  0  0  1  0  0  0  0  0  0  0  0
  -52.8038  -18.0564   74.6635 C   0  0  0  1  0  0  0  0  0  0  0  0
  -53.6452  -18.6719   74.3455 H   0  0  0  1  0  0  0  0  0  0  0  0
  -52.7415  -17.1712   74.0305 H   0  0  0  1  0  0  0  0  0  0  0  0
  -51.4895  -18.8785   74.5177 C   0  0  0  1  0  0  0  0  0  0  0  0
  -51.5423  -19.7654   75.1491 H   0  0  0  1  0  0  0  0  0  0  0  0
  -50.6407  -18.2661   74.8218 H   0  0  0  1  0  0  0  0  0  0  0  0
  -51.3273  -19.2811   73.1206 N   0  0  0  1  0  0  0  0  0  0  0  0
  -52.0508  -18.9856   72.4809 H   0  0  0  1  0  0  0  0  0  0  0  0
  -50.2748  -20.0341   72.5701 C   0  0  0  1  0  0  0  0  0  0  0  0
  -49.3669  -20.4647   73.3007 O   0  0  0  1  0  0  0  0  0  0  0  0
  -50.4600  -20.2550   71.1740 N   0  0  0  1  0  0  0  0  0  0  0  0
  -51.3102  -19.8599   70.7983 H   0  0  0  1  0  0  0  0  0  0  0  0
  -49.6900  -20.9060   70.2590 C   0  0  0  1  0  0  0  0  0  0  0  0
  -50.2570  -20.8250   69.0000 N   0  0  0  1  0  0  0  0  0  0  0  0
  -49.8842  -21.3783   68.2417 H   0  0  0  1  0  0  0  0  0  0  0  0
  -51.0438  -20.2125   68.8389 H   0  0  0  1  0  0  0  0  0  0  0  0
  -48.6290  -21.7900   70.2920 N   0  0  0  1  0  0  0  0  0  0  0  0
  -47.7070  -22.1200   71.3230 C   0  0  0  1  0  0  0  0  0  0  0  0
  -48.1435  -21.9395   72.3054 H   0  0  0  1  0  0  0  0  0  0  0  0
  -47.3992  -23.1630   71.2482 H   0  0  0  1  0  0  0  0  0  0  0  0
  -46.5220  -21.1840   71.0740 C   0  0  0  1  0  0  0  0  0  0  0  0
  -46.9258  -20.2178   70.7716 H   0  0  0  1  0  0  0  0  0  0  0  0
  -45.9869  -21.0750   72.0173 H   0  0  0  1  0  0  0  0  0  0  0  0
  -45.4860  -21.6160   69.9960 C   0  0  0  1  0  0  0  0  0  0  0  0
  -45.9831  -21.6765   69.0278 H   0  0  0  1  0  0  0  0  0  0  0  0
  -45.0840  -22.5942   70.2597 H   0  0  0  1  0  0  0  0  0  0  0  0
  -44.2930  -20.5720   69.9030 C   0  0  0  1  0  0  0  0  0  0  0  0
  -43.4175  -20.9189   69.3542 H   0  0  0  1  0  0  0  0  0  0  0  0
  -43.9430  -20.2610   71.3950 C   0  0  0  1  0  0  0  0  0  0  0  0
  -43.2680  -21.2970   72.0370 N   0  0  0  1  0  0  0  0  0  0  0  0
  -42.9631  -22.0791   71.4753 H   0  0  0  1  0  0  0  0  0  0  0  0
  -42.9760  -21.3290   73.4430 C   0  0  0  1  0  0  0  0  0  0  0  0
  -42.1220  -21.9707   73.6596 H   0  0  0  1  0  0  0  0  0  0  0  0
  -42.7882  -20.3295   73.8353 H   0  0  0  1  0  0  0  0  0  0  0  0
  -44.2750  -21.9160   74.0000 C   0  0  0  1  0  0  0  0  0  0  0  0
  -44.6710  -23.2570   73.6750 C   0  0  0  1  0  0  0  0  0  0  0  0
  -44.0095  -23.8778   73.0890 H   0  0  0  1  0  0  0  0  0  0  0  0
  -45.9140  -23.7810   74.1090 C   0  0  0  1  0  0  0  0  0  0  0  0
  -46.2001  -24.7938   73.8667 H   0  0  0  1  0  0  0  0  0  0  0  0
  -46.7720  -22.9500   74.8660 C   0  0  0  1  0  0  0  0  0  0  0  0
  -48.0010  -23.3600   75.3380 O   0  0  0  1  0  0  0  0  0  0  0  0
  -48.4837  -22.6994   75.8401 H   0  0  0  1  0  0  0  0  0  0  0  0
  -46.3920  -21.6040   75.1900 C   0  0  0  1  0  0  0  0  0  0  0  0
  -47.0635  -20.9775   75.7583 H   0  0  0  1  0  0  0  0  0  0  0  0
  -45.1510  -21.0990   74.7710 C   0  0  0  1  0  0  0  0  0  0  0  0
  -44.8607  -20.0922   75.0329 H   0  0  0  1  0  0  0  0  0  0  0  0
  -44.2390  -19.1780   71.9410 O   0  0  0  1  0  0  0  0  0  0  0  0
  -44.8310  -19.3810   69.2410 N   0  0  0  1  0  0  0  0  0  0  0  0
  -45.3418  -18.7187   69.8071 H   0  0  0  1  0  0  0  0  0  0  0  0
  -44.6870  -19.1000   67.8890 C   0  0  0  1  0  0  0  0  0  0  0  0
  -44.0790  -19.8190   67.1090 O   0  0  0  1  0  0  0  0  0  0  0  0
  -45.4070  -17.8340   67.4640 C   0  0  0  1  0  0  0  0  0  0  0  0
  -45.5191  -17.1446   68.3008 H   0  0  0  1  0  0  0  0  0  0  0  0
  -46.7920  -18.2790   66.9880 C   0  0  0  1  0  0  0  0  0  0  0  0
  -47.9390  -17.9030   67.6910 C   0  0  0  1  0  0  0  0  0  0  0  0
  -47.8686  -17.2440   68.5437 H   0  0  0  1  0  0  0  0  0  0  0  0
  -49.1880  -18.3970   67.2700 C   0  0  0  1  0  0  0  0  0  0  0  0
  -50.0790  -18.1102   67.8088 H   0  0  0  1  0  0  0  0  0  0  0  0
  -46.9160  -19.1540   65.8530 C   0  0  0  1  0  0  0  0  0  0  0  0
  -46.0285  -19.4383   65.3071 H   0  0  0  1  0  0  0  0  0  0  0  0
  -48.1600  -19.6460   65.4390 C   0  0  0  1  0  0  0  0  0  0  0  0
  -48.2363  -20.3059   64.5875 H   0  0  0  1  0  0  0  0  0  0  0  0
  -49.3010  -19.2650   66.1510 C   0  0  0  1  0  0  0  0  0  0  0  0
  -50.2712  -19.6315   65.8496 H   0  0  0  1  0  0  0  0  0  0  0  0
  -44.6090  -16.9290   66.5050 C   0  0  0  1  0  0  0  0  0  0  0  0
  -43.2450  -16.6910   66.7460 C   0  0  0  1  0  0  0  0  0  0  0  0
  -42.7509  -17.1929   67.5647 H   0  0  0  1  0  0  0  0  0  0  0  0
  -42.5140  -15.8010   65.9270 C   0  0  0  1  0  0  0  0  0  0  0  0
  -41.4684  -15.6253   66.1325 H   0  0  0  1  0  0  0  0  0  0  0  0
  -43.1280  -15.1420   64.8500 C   0  0  0  1  0  0  0  0  0  0  0  0
  -42.5627  -14.4605   64.2316 H   0  0  0  1  0  0  0  0  0  0  0  0
  -44.4780  -15.3790   64.5890 C   0  0  0  1  0  0  0  0  0  0  0  0
  -44.9601  -14.8861   63.7577 H   0  0  0  1  0  0  0  0  0  0  0  0
  -45.2150  -16.2600   65.4070 C   0  0  0  1  0  0  0  0  0  0  0  0
  -46.2603  -16.4297   65.1951 H   0  0  0  1  0  0  0  0  0  0  0  0
  -55.4408  -14.4096   77.4482 O   0  0  0  1  0  0  0  0  0  0  0  0
  1  2  1  0  0  0  0
  1  3  1  0  0  0  0
  1  4  1  0  0  0  0
  1 14  1  0  0  0  0
  4  5  1  0  0  0  0
  4  6  1  0  0  0  0
  6  7  1  0  0  0  0
  6 92  2  0  0  0  0
  7  8  1  0  0  0  0
  7  9  1  0  0  0  0
  7 10  1  0  0  0  0
 10 11  1  0  0  0  0
 10 12  1  0  0  0  0
 10 13  1  0  0  0  0
 14 15  1  0  0  0  0
 14 16  1  0  0  0  0
 14 17  1  0  0  0  0
 17 18  1  0  0  0  0
 17 19  1  0  0  0  0
 17 20  1  0  0  0  0
 20 21  1  0  0  0  0
 20 22  1  0  0  0  0
 20 23  1  0  0  0  0
 23 24  1  0  0  0  0
 23 25  1  0  0  0  0
 25 26  2  0  0  0  0
 25 27  1  0  0  0  0
 27 28  1  0  0  0  0
 27 29  1  0  0  0  0
 29 30  1  0  0  0  0
 29 33  2  0  0  0  0
 30 31  1  0  0  0  0
 30 32  1  0  0  0  0
 33 34  1  0  0  0  0
 34 35  1  0  0  0  0
 34 36  1  0  0  0  0
 34 37  1  0  0  0  0
 37 38  1  0  0  0  0
 37 39  1  0  0  0  0
 37 40  1  0  0  0  0
 40 41  1  0  0  0  0
 40 42  1  0  0  0  0
 40 43  1  0  0  0  0
 43 44  1  0  0  0  0
 43 45  1  0  0  0  0
 43 64  1  0  0  0  0
 45 46  1  0  0  0  0
 45 63  2  0  0  0  0
 46 47  1  0  0  0  0
 46 48  1  0  0  0  0
 48 49  1  0  0  0  0
 48 50  1  0  0  0  0
 48 51  1  0  0  0  0
 51 52  1  0  0  0  0
 51 61  2  0  0  0  0
 52 53  1  0  0  0  0
 52 54  2  0  0  0  0
 54 55  1  0  0  0  0
 54 56  1  0  0  0  0
 56 57  1  0  0  0  0
 56 59  2  0  0  0  0
 57 58  1  0  0  0  0
 59 60  1  0  0  0  0
 59 61  1  0  0  0  0
 61 62  1  0  0  0  0
 64 65  1  0  0  0  0
 64 66  1  0  0  0  0
 66 67  2  0  0  0  0
 66 68  1  0  0  0  0
 68 69  1  0  0  0  0
 68 70  1  0  0  0  0
 68 81  1  0  0  0  0
 70 71  2  0  0  0  0
 70 75  1  0  0  0  0
 71 72  1  0  0  0  0
 71 73  1  0  0  0  0
 73 74  1  0  0  0  0
 73 79  2  0  0  0  0
 75 76  1  0  0  0  0
 75 77  2  0  0  0  0
 77 78  1  0  0  0  0
 77 79  1  0  0  0  0
 79 80  1  0  0  0  0
 81 82  1  0  0  0  0
 81 90  2  0  0  0  0
 82 83  1  0  0  0  0
 82 84  2  0  0  0  0
 84 85  1  0  0  0  0
 84 86  1  0  0  0  0
 86 87  1  0  0  0  0
 86 88  2  0  0  0  0
 88 89  1  0  0  0  0
 88 90  1  0  0  0  0
 90 91  1  0  0  0  0
M  END
> <ConfScore>
-0.657318 

> <SampleByParts>
10 7 6 92 4 1 14 17 20 23 25 26 27 29 30 33

$$$$
NPY1_MK299_12302016.pdb.B
  MOE2014           3D

 92 94  0  0  0  0  0  0  0  0999 V2000
  -54.6457  -17.2967   76.3348 C   0  0  0  1  0  0  0  0  0  0  0  0
  -54.3877  -16.2954   75.9783 H   0  0  0  1  0  0  0  0  0  0  0  0
  -55.5159  -17.6451   75.7687 H   0  0  0  1  0  0  0  0  0  0  0  0
  -55.0446  -17.2302   77.7321 N   0  0  0  1  0  0  0  0  0  0  0  0
  -54.8621  -18.0413   78.3110 H   0  0  0  1  0  0  0  0  0  0  0  0
  -55.6501  -16.2049   78.4068 C   0  0  0  1  0  0  0  0  0  0  0  0
  -55.9938  -16.4366   79.8656 C   0  0  0  1  0  0  0  0  0  0  0  0
  -55.9878  -15.4710   80.3827 H   0  0  0  1  0  0  0  0  0  0  0  0
  -55.2282  -17.0764   80.3157 H   0  0  0  1  0  0  0  0  0  0  0  0
  -57.3533  -17.0882   80.0443 C   0  0  0  1  0  0  0  0  0  0  0  0
  -57.5622  -17.2524   81.1059 H   0  0  0  1  0  0  0  0  0  0  0  0
  -57.3917  -18.0548   79.5340 H   0  0  0  1  0  0  0  0  0  0  0  0
  -58.1490  -16.4593   79.6320 H   0  0  0  1  0  0  0  0  0  0  0  0
  -53.4769  -18.2573   76.1548 C   0  0  0  1  0  0  0  0  0  0  0  0
  -52.6303  -17.8914   76.7457 H   0  0  0  1  0  0  0  0  0  0  0  0
  -53.7365  -19.2392   76.5704 H   0  0  0  1  0  0  0  0  0  0  0  0
  -53.0689  -18.4156   74.6830 C   0  0  0  1  0  0  0  0  0  0  0  0
  -53.9064  -18.8144   74.1106 H   0  0  0  1  0  0  0  0  0  0  0  0
  -52.7884  -17.4404   74.2851 H   0  0  0  1  0  0  0  0  0  0  0  0
  -51.8574  -19.3849   74.5525 C   0  0  0  1  0  0  0  0  0  0  0  0
  -52.1284  -20.3630   74.9500 H   0  0  0  1  0  0  0  0  0  0  0  0
  -51.0105  -18.9874   75.1119 H   0  0  0  1  0  0  0  0  0  0  0  0
  -51.4949  -19.5133   73.1409 N   0  0  0  1  0  0  0  0  0  0  0  0
  -52.0605  -18.9966   72.4829 H   0  0  0  1  0  0  0  0  0  0  0  0
  -50.4456  -20.2771   72.5993 C   0  0  0  1  0  0  0  0  0  0  0  0
  -49.6833  -20.9104   73.3486 O   0  0  0  1  0  0  0  0  0  0  0  0
  -50.4600  -20.2550   71.1740 N   0  0  0  1  0  0  0  0  0  0  0  0
  -51.1638  -19.6515   70.7732 H   0  0  0  1  0  0  0  0  0  0  0  0
  -49.6900  -20.9060   70.2590 C   0  0  0  1  0  0  0  0  0  0  0  0
  -50.2570  -20.8250   69.0000 N   0  0  0  1  0  0  0  0  0  0  0  0
  -49.8842  -21.3783   68.2417 H   0  0  0  1  0  0  0  0  0  0  0  0
  -51.0438  -20.2125   68.8389 H   0  0  0  1  0  0  0  0  0  0  0  0
  -48.6290  -21.7900   70.2920 N   0  0  0  1  0  0  0  0  0  0  0  0
  -47.7070  -22.1200   71.3230 C   0  0  0  1  0  0  0  0  0  0  0  0
  -48.1435  -21.9395   72.3054 H   0  0  0  1  0  0  0  0  0  0  0  0
  -47.3992  -23.1630   71.2482 H   0  0  0  1  0  0  0  0  0  0  0  0
  -46.5220  -21.1840   71.0740 C   0  0  0  1  0  0  0  0  0  0  0  0
  -46.9258  -20.2178   70.7716 H   0  0  0  1  0  0  0  0  0  0  0  0
  -45.9869  -21.0750   72.0173 H   0  0  0  1  0  0  0  0  0  0  0  0
  -45.4860  -21.6160   69.9960 C   0  0  0  1  0  0  0  0  0  0  0  0
  -45.9831  -21.6765   69.0278 H   0  0  0  1  0  0  0  0  0  0  0  0
  -45.0840  -22.5942   70.2597 H   0  0  0  1  0  0  0  0  0  0  0  0
  -44.2930  -20.5720   69.9030 C   0  0  0  1  0  0  0  0  0  0  0  0
  -43.4175  -20.9189   69.3542 H   0  0  0  1  0  0  0  0  0  0  0  0
  -43.9430  -20.2610   71.3950 C   0  0  0  1  0  0  0  0  0  0  0  0
  -43.2680  -21.2970   72.0370 N   0  0  0  1  0  0  0  0  0  0  0  0
  -42.9631  -22.0791   71.4753 H   0  0  0  1  0  0  0  0  0  0  0  0
  -42.9760  -21.3290   73.4430 C   0  0  0  1  0  0  0  0  0  0  0  0
  -42.1220  -21.9707   73.6596 H   0  0  0  1  0  0  0  0  0  0  0  0
  -42.7882  -20.3295   73.8353 H   0  0  0  1  0  0  0  0  0  0  0  0
  -44.2750  -21.9160   74.0000 C   0  0  0  1  0  0  0  0  0  0  0  0
  -44.6710  -23.2570   73.6750 C   0  0  0  1  0  0  0  0  0  0  0  0
  -44.0095  -23.8778   73.0890 H   0  0  0  1  0  0  0  0  0  0  0  0
  -45.9140  -23.7810   74.1090 C   0  0  0  1  0  0  0  0  0  0  0  0
  -46.2001  -24.7938   73.8667 H   0  0  0  1  0  0  0  0  0  0  0  0
  -46.7720  -22.9500   74.8660 C   0  0  0  1  0  0  0  0  0  0  0  0
  -48.0010  -23.3600   75.3380 O   0  0  0  1  0  0  0  0  0  0  0  0
  -48.4837  -22.6994   75.8401 H   0  0  0  1  0  0  0  0  0  0  0  0
  -46.3920  -21.6040   75.1900 C   0  0  0  1  0  0  0  0  0  0  0  0
  -47.0635  -20.9775   75.7583 H   0  0  0  1  0  0  0  0  0  0  0  0
  -45.1510  -21.0990   74.7710 C   0  0  0  1  0  0  0  0  0  0  0  0
  -44.8607  -20.0922   75.0329 H   0  0  0  1  0  0  0  0  0  0  0  0
  -44.2390  -19.1780   71.9410 O   0  0  0  1  0  0  0  0  0  0  0  0
  -44.8310  -19.3810   69.2410 N   0  0  0  1  0  0  0  0  0  0  0  0
  -45.3418  -18.7187   69.8071 H   0  0  0  1  0  0  0  0  0  0  0  0
  -44.6870  -19.1000   67.8890 C   0  0  0  1  0  0  0  0  0  0  0  0
  -44.0790  -19.8190   67.1090 O   0  0  0  1  0  0  0  0  0  0  0  0
  -45.4070  -17.8340   67.4640 C   0  0  0  1  0  0  0  0  0  0  0  0
  -45.5191  -17.1446   68.3008 H   0  0  0  1  0  0  0  0  0  0  0  0
  -46.7920  -18.2790   66.9880 C   0  0  0  1  0  0  0  0  0  0  0  0
  -47.9390  -17.9030   67.6910 C   0  0  0  1  0  0  0  0  0  0  0  0
  -47.8686  -17.2440   68.5437 H   0  0  0  1  0  0  0  0  0  0  0  0
  -49.1880  -18.3970   67.2700 C   0  0  0  1  0  0  0  0  0  0  0  0
  -50.0790  -18.1102   67.8088 H   0  0  0  1  0  0  0  0  0  0  0  0
  -46.9160  -19.1540   65.8530 C   0  0  0  1  0  0  0  0  0  0  0  0
  -46.0285  -19.4383   65.3071 H   0  0  0  1  0  0  0  0  0  0  0  0
  -48.1600  -19.6460   65.4390 C   0  0  0  1  0  0  0  0  0  0  0  0
  -48.2363  -20.3059   64.5875 H   0  0  0  1  0  0  0  0  0  0  0  0
  -49.3010  -19.2650   66.1510 C   0  0  0  1  0  0  0  0  0  0  0  0
  -50.2712  -19.6315   65.8496 H   0  0  0  1  0  0  0  0  0  0  0  0
  -44.6090  -16.9290   66.5050 C   0  0  0  1  0  0  0  0  0  0  0  0
  -43.2450  -16.6910   66.7460 C   0  0  0  1  0  0  0  0  0  0  0  0
  -42.7509  -17.1929   67.5647 H   0  0  0  1  0  0  0  0  0  0  0  0
  -42.5140  -15.8010   65.9270 C   0  0  0  1  0  0  0  0  0  0  0  0
  -41.4684  -15.6253   66.1325 H   0  0  0  1  0  0  0  0  0  0  0  0
  -43.1280  -15.1420   64.8500 C   0  0  0  1  0  0  0  0  0  0  0  0
  -42.5627  -14.4605   64.2316 H   0  0  0  1  0  0  0  0  0  0  0  0
  -44.4780  -15.3790   64.5890 C   0  0  0  1  0  0  0  0  0  0  0  0
  -44.9601  -14.8861   63.7577 H   0  0  0  1  0  0  0  0  0  0  0  0
  -45.2150  -16.2600   65.4070 C   0  0  0  1  0  0  0  0  0  0  0  0
  -46.2603  -16.4297   65.1951 H   0  0  0  1  0  0  0  0  0  0  0  0
  -55.8770  -15.1495   77.8166 O   0  0  0  1  0  0  0  0  0  0  0  0
  1  2  1  0  0  0  0
  1  3  1  0  0  0  0
  1  4  1  0  0  0  0
  1 14  1  0  0  0  0
  4  5  1  0  0  0  0
  4  6  1  0  0  0  0
  6  7  1  0  0  0  0
  6 92  2  0  0  0  0
  7  8  1  0  0  0  0
  7  9  1  0  0  0  0
  7 10  1  0  0  0  0
 10 11  1  0  0  0  0
 10 12  1  0  0  0  0
 10 13  1  0  0  0  0
 14 15  1  0  0  0  0
 14 16  1  0  0  0  0
 14 17  1  0  0  0  0
 17 18  1  0  0  0  0
 17 19  1  0  0  0  0
 17 20  1  0  0  0  0
 20 21  1  0  0  0  0
 20 22  1  0  0  0  0
 20 23  1  0  0  0  0
 23 24  1  0  0  0  0
 23 25  1  0  0  0  0
 25 26  2  0  0  0  0
 25 27  1  0  0  0  0
 27 28  1  0  0  0  0
 27 29  1  0  0  0  0
 29 30  1  0  0  0  0
 29 33  2  0  0  0  0
 30 31  1  0  0  0  0
 30 32  1  0  0  0  0
 33 34  1  0  0  0  0
 34 35  1  0  0  0  0
 34 36  1  0  0  0  0
 34 37  1  0  0  0  0
 37 38  1  0  0  0  0
 37 39  1  0  0  0  0
 37 40  1  0  0  0  0
 40 41  1  0  0  0  0
 40 42  1  0  0  0  0
 40 43  1  0  0  0  0
 43 44  1  0  0  0  0
 43 45  1  0  0  0  0
 43 64  1  0  0  0  0
 45 46  1  0  0  0  0
 45 63  2  0  0  0  0
 46 47  1  0  0  0  0
 46 48  1  0  0  0  0
 48 49  1  0  0  0  0
 48 50  1  0  0  0  0
 48 51  1  0  0  0  0
 51 52  1  0  0  0  0
 51 61  2  0  0  0  0
 52 53  1  0  0  0  0
 52 54  2  0  0  0  0
 54 55  1  0  0  0  0
 54 56  1  0  0  0  0
 56 57  1  0  0  0  0
 56 59  2  0  0  0  0
 57 58  1  0  0  0  0
 59 60  1  0  0  0  0
 59 61  1  0  0  0  0
 61 62  1  0  0  0  0
 64 65  1  0  0  0  0
 64 66  1  0  0  0  0
 66 67  2  0  0  0  0
 66 68  1  0  0  0  0
 68 69  1  0  0  0  0
 68 70  1  0  0  0  0
 68 81  1  0  0  0  0
 70 71  2  0  0  0  0
 70 75  1  0  0  0  0
 71 72  1  0  0  0  0
 71 73  1  0  0  0  0
 73 74  1  0  0  0  0
 73 79  2  0  0  0  0
 75 76  1  0  0  0  0
 75 77  2  0  0  0  0
 77 78  1  0  0  0  0
 77 79  1  0  0  0  0
 79 80  1  0  0  0  0
 81 82  1  0  0  0  0
 81 90  2  0  0  0  0
 82 83  1  0  0  0  0
 82 84  2  0  0  0  0
 84 85  1  0  0  0  0
 84 86  1  0  0  0  0
 86 87  1  0  0  0  0
 86 88  2  0  0  0  0
 88 89  1  0  0  0  0
 88 90  1  0  0  0  0
 90 91  1  0  0  0  0
M  END
> <ConfScore>
-0.657318 

> <SampleByParts>
10 7 6 92 4 1 14 17 20 23 25 26 27 29 30 33

$$$$
NPY1_MK299_12302016.pdb.B
  MOE2014           3D

 92 94  0  0  0  0  0  0  0  0999 V2000
  -54.5272  -17.2561   76.4056 C   0  0  0  1  0  0  0  0  0  0  0  0
  -54.5034  -16.3134   75.8515 H   0  0  0  1  0  0  0  0  0  0  0  0
  -55.3857  -17.8365   76.0517 H   0  0  0  1  0  0  0  0  0  0  0  0
  -54.7472  -16.9873   77.8182 N   0  0  0  1  0  0  0  0  0  0  0  0
  -54.0569  -17.3328   78.4743 H   0  0  0  1  0  0  0  0  0  0  0  0
  -55.7796  -16.3169   78.4165 C   0  0  0  1  0  0  0  0  0  0  0  0
  -55.7381  -16.1762   79.9259 C   0  0  0  1  0  0  0  0  0  0  0  0
  -54.8553  -16.7050   80.3012 H   0  0  0  1  0  0  0  0  0  0  0  0
  -56.6308  -16.6438   80.3531 H   0  0  0  1  0  0  0  0  0  0  0  0
  -55.6759  -14.7261   80.3713 C   0  0  0  1  0  0  0  0  0  0  0  0
  -55.6609  -14.6618   81.4637 H   0  0  0  1  0  0  0  0  0  0  0  0
  -56.5442  -14.1695   80.0072 H   0  0  0  1  0  0  0  0  0  0  0  0
  -54.7767  -14.2340   79.9868 H   0  0  0  1  0  0  0  0  0  0  0  0
  -53.2370  -18.0405   76.2024 C   0  0  0  1  0  0  0  0  0  0  0  0
  -52.4082  -17.4658   76.6297 H   0  0  0  1  0  0  0  0  0  0  0  0
  -53.2806  -18.9793   76.7691 H   0  0  0  1  0  0  0  0  0  0  0  0
  -52.9638  -18.3474   74.7230 C   0  0  0  1  0  0  0  0  0  0  0  0
  -53.7761  -18.9502   74.3168 H   0  0  0  1  0  0  0  0  0  0  0  0
  -52.8968  -17.4094   74.1719 H   0  0  0  1  0  0  0  0  0  0  0  0
  -51.6251  -19.1265   74.5642 C   0  0  0  1  0  0  0  0  0  0  0  0
  -51.6824  -20.0660   75.1139 H   0  0  0  1  0  0  0  0  0  0  0  0
  -50.8047  -18.5255   74.9564 H   0  0  0  1  0  0  0  0  0  0  0  0
  -51.3952  -19.4025   73.1459 N   0  0  0  1  0  0  0  0  0  0  0  0
  -52.1062  -19.0811   72.5046 H   0  0  0  1  0  0  0  0  0  0  0  0
  -50.2934  -20.0658   72.5771 C   0  0  0  1  0  0  0  0  0  0  0  0
  -49.3604  -20.4573   73.2980 O   0  0  0  1  0  0  0  0  0  0  0  0
  -50.4600  -20.2550   71.1740 N   0  0  0  1  0  0  0  0  0  0  0  0
  -51.2943  -19.8326   70.7923 H   0  0  0  1  0  0  0  0  0  0  0  0
  -49.6900  -20.9060   70.2590 C   0  0  0  1  0  0  0  0  0  0  0  0
  -50.2570  -20.8250   69.0000 N   0  0  0  1  0  0  0  0  0  0  0  0
  -49.8842  -21.3783   68.2417 H   0  0  0  1  0  0  0  0  0  0  0  0
  -51.0438  -20.2125   68.8389 H   0  0  0  1  0  0  0  0  0  0  0  0
  -48.6290  -21.7900   70.2920 N   0  0  0  1  0  0  0  0  0  0  0  0
  -47.7070  -22.1200   71.3230 C   0  0  0  1  0  0  0  0  0  0  0  0
  -48.1435  -21.9395   72.3054 H   0  0  0  1  0  0  0  0  0  0  0  0
  -47.3992  -23.1630   71.2482 H   0  0  0  1  0  0  0  0  0  0  0  0
  -46.5220  -21.1840   71.0740 C   0  0  0  1  0  0  0  0  0  0  0  0
  -46.9258  -20.2178   70.7716 H   0  0  0  1  0  0  0  0  0  0  0  0
  -45.9869  -21.0750   72.0173 H   0  0  0  1  0  0  0  0  0  0  0  0
  -45.4860  -21.6160   69.9960 C   0  0  0  1  0  0  0  0  0  0  0  0
  -45.9831  -21.6765   69.0278 H   0  0  0  1  0  0  0  0  0  0  0  0
  -45.0840  -22.5942   70.2597 H   0  0  0  1  0  0  0  0  0  0  0  0
  -44.2930  -20.5720   69.9030 C   0  0  0  1  0  0  0  0  0  0  0  0
  -43.4175  -20.9189   69.3542 H   0  0  0  1  0  0  0  0  0  0  0  0
  -43.9430  -20.2610   71.3950 C   0  0  0  1  0  0  0  0  0  0  0  0
  -43.2680  -21.2970   72.0370 N   0  0  0  1  0  0  0  0  0  0  0  0
  -42.9631  -22.0791   71.4753 H   0  0  0  1  0  0  0  0  0  0  0  0
  -42.9760  -21.3290   73.4430 C   0  0  0  1  0  0  0  0  0  0  0  0
  -42.1220  -21.9707   73.6596 H   0  0  0  1  0  0  0  0  0  0  0  0
  -42.7882  -20.3295   73.8353 H   0  0  0  1  0  0  0  0  0  0  0  0
  -44.2750  -21.9160   74.0000 C   0  0  0  1  0  0  0  0  0  0  0  0
  -44.6710  -23.2570   73.6750 C   0  0  0  1  0  0  0  0  0  0  0  0
  -44.0095  -23.8778   73.0890 H   0  0  0  1  0  0  0  0  0  0  0  0
  -45.9140  -23.7810   74.1090 C   0  0  0  1  0  0  0  0  0  0  0  0
  -46.2001  -24.7938   73.8667 H   0  0  0  1  0  0  0  0  0  0  0  0
  -46.7720  -22.9500   74.8660 C   0  0  0  1  0  0  0  0  0  0  0  0
  -48.0010  -23.3600   75.3380 O   0  0  0  1  0  0  0  0  0  0  0  0
  -48.4837  -22.6994   75.8401 H   0  0  0  1  0  0  0  0  0  0  0  0
  -46.3920  -21.6040   75.1900 C   0  0  0  1  0  0  0  0  0  0  0  0
  -47.0635  -20.9775   75.7583 H   0  0  0  1  0  0  0  0  0  0  0  0
  -45.1510  -21.0990   74.7710 C   0  0  0  1  0  0  0  0  0  0  0  0
  -44.8607  -20.0922   75.0329 H   0  0  0  1  0  0  0  0  0  0  0  0
  -44.2390  -19.1780   71.9410 O   0  0  0  1  0  0  0  0  0  0  0  0
  -44.8310  -19.3810   69.2410 N   0  0  0  1  0  0  0  0  0  0  0  0
  -45.3418  -18.7187   69.8071 H   0  0  0  1  0  0  0  0  0  0  0  0
  -44.6870  -19.1000   67.8890 C   0  0  0  1  0  0  0  0  0  0  0  0
  -44.0790  -19.8190   67.1090 O   0  0  0  1  0  0  0  0  0  0  0  0
  -45.4070  -17.8340   67.4640 C   0  0  0  1  0  0  0  0  0  0  0  0
  -45.5191  -17.1446   68.3008 H   0  0  0  1  0  0  0  0  0  0  0  0
  -46.7920  -18.2790   66.9880 C   0  0  0  1  0  0  0  0  0  0  0  0
  -47.9390  -17.9030   67.6910 C   0  0  0  1  0  0  0  0  0  0  0  0
  -47.8686  -17.2440   68.5437 H   0  0  0  1  0  0  0  0  0  0  0  0
  -49.1880  -18.3970   67.2700 C   0  0  0  1  0  0  0  0  0  0  0  0
  -50.0790  -18.1102   67.8088 H   0  0  0  1  0  0  0  0  0  0  0  0
  -46.9160  -19.1540   65.8530 C   0  0  0  1  0  0  0  0  0  0  0  0
  -46.0285  -19.4383   65.3071 H   0  0  0  1  0  0  0  0  0  0  0  0
  -48.1600  -19.6460   65.4390 C   0  0  0  1  0  0  0  0  0  0  0  0
  -48.2363  -20.3059   64.5875 H   0  0  0  1  0  0  0  0  0  0  0  0
  -49.3010  -19.2650   66.1510 C   0  0  0  1  0  0  0  0  0  0  0  0
  -50.2712  -19.6315   65.8496 H   0  0  0  1  0  0  0  0  0  0  0  0
  -44.6090  -16.9290   66.5050 C   0  0  0  1  0  0  0  0  0  0  0  0
  -43.2450  -16.6910   66.7460 C   0  0  0  1  0  0  0  0  0  0  0  0
  -42.7509  -17.1929   67.5647 H   0  0  0  1  0  0  0  0  0  0  0  0
  -42.5140  -15.8010   65.9270 C   0  0  0  1  0  0  0  0  0  0  0  0
  -41.4684  -15.6253   66.1325 H   0  0  0  1  0  0  0  0  0  0  0  0
  -43.1280  -15.1420   64.8500 C   0  0  0  1  0  0  0  0  0  0  0  0
  -42.5627  -14.4605   64.2316 H   0  0  0  1  0  0  0  0  0  0  0  0
  -44.4780  -15.3790   64.5890 C   0  0  0  1  0  0  0  0  0  0  0  0
  -44.9601  -14.8861   63.7577 H   0  0  0  1  0  0  0  0  0  0  0  0
  -45.2150  -16.2600   65.4070 C   0  0  0  1  0  0  0  0  0  0  0  0
  -46.2603  -16.4297   65.1951 H   0  0  0  1  0  0  0  0  0  0  0  0
  -56.6789  -15.8527   77.7171 O   0  0  0  1  0  0  0  0  0  0  0  0
  1  2  1  0  0  0  0
  1  3  1  0  0  0  0
  1  4  1  0  0  0  0
  1 14  1  0  0  0  0
  4  5  1  0  0  0  0
  4  6  1  0  0  0  0
  6  7  1  0  0  0  0
  6 92  2  0  0  0  0
  7  8  1  0  0  0  0
  7  9  1  0  0  0  0
  7 10  1  0  0  0  0
 10 11  1  0  0  0  0
 10 12  1  0  0  0  0
 10 13  1  0  0  0  0
 14 15  1  0  0  0  0
 14 16  1  0  0  0  0
 14 17  1  0  0  0  0
 17 18  1  0  0  0  0
 17 19  1  0  0  0  0
 17 20  1  0  0  0  0
 20 21  1  0  0  0  0
 20 22  1  0  0  0  0
 20 23  1  0  0  0  0
 23 24  1  0  0  0  0
 23 25  1  0  0  0  0
 25 26  2  0  0  0  0
 25 27  1  0  0  0  0
 27 28  1  0  0  0  0
 27 29  1  0  0  0  0
 29 30  1  0  0  0  0
 29 33  2  0  0  0  0
 30 31  1  0  0  0  0
 30 32  1  0  0  0  0
 33 34  1  0  0  0  0
 34 35  1  0  0  0  0
 34 36  1  0  0  0  0
 34 37  1  0  0  0  0
 37 38  1  0  0  0  0
 37 39  1  0  0  0  0
 37 40  1  0  0  0  0
 40 41  1  0  0  0  0
 40 42  1  0  0  0  0
 40 43  1  0  0  0  0
 43 44  1  0  0  0  0
 43 45  1  0  0  0  0
 43 64  1  0  0  0  0
 45 46  1  0  0  0  0
 45 63  2  0  0  0  0
 46 47  1  0  0  0  0
 46 48  1  0  0  0  0
 48 49  1  0  0  0  0
 48 50  1  0  0  0  0
 48 51  1  0  0  0  0
 51 52  1  0  0  0  0
 51 61  2  0  0  0  0
 52 53  1  0  0  0  0
 52 54  2  0  0  0  0
 54 55  1  0  0  0  0
 54 56  1  0  0  0  0
 56 57  1  0  0  0  0
 56 59  2  0  0  0  0
 57 58  1  0  0  0  0
 59 60  1  0  0  0  0
 59 61  1  0  0  0  0
 61 62  1  0  0  0  0
 64 65  1  0  0  0  0
 64 66  1  0  0  0  0
 66 67  2  0  0  0  0
 66 68  1  0  0  0  0
 68 69  1  0  0  0  0
 68 70  1  0  0  0  0
 68 81  1  0  0  0  0
 70 71  2  0  0  0  0
 70 75  1  0  0  0  0
 71 72  1  0  0  0  0
 71 73  1  0  0  0  0
 73 74  1  0  0  0  0
 73 79  2  0  0  0  0
 75 76  1  0  0  0  0
 75 77  2  0  0  0  0
 77 78  1  0  0  0  0
 77 79  1  0  0  0  0
 79 80  1  0  0  0  0
 81 82  1  0  0  0  0
 81 90  2  0  0  0  0
 82 83  1  0  0  0  0
 82 84  2  0  0  0  0
 84 85  1  0  0  0  0
 84 86  1  0  0  0  0
 86 87  1  0  0  0  0
 86 88  2  0  0  0  0
 88 89  1  0  0  0  0
 88 90  1  0  0  0  0
 90 91  1  0  0  0  0
M  END
> <ConfScore>
-0.655819 

> <SampleByParts>
10 7 6 92 4 1 14 17 20 23 25 26 27 29 30 33

$$$$
NPY1_MK299_12302016.pdb.B
  MOE2014           3D

 92 94  0  0  0  0  0  0  0  0999 V2000
  -54.3687  -16.9279   76.3172 C   0  0  0  1  0  0  0  0  0  0  0  0
  -54.3735  -15.9985   75.7405 H   0  0  0  1  0  0  0  0  0  0  0  0
  -55.2155  -17.5378   75.9856 H   0  0  0  1  0  0  0  0  0  0  0  0
  -54.5825  -16.6305   77.7250 N   0  0  0  1  0  0  0  0  0  0  0  0
  -53.9279  -17.0220   78.3917 H   0  0  0  1  0  0  0  0  0  0  0  0
  -55.5670  -15.8779   78.3061 C   0  0  0  1  0  0  0  0  0  0  0  0
  -55.5261  -15.7203   79.8139 C   0  0  0  1  0  0  0  0  0  0  0  0
  -55.0565  -14.7597   80.0514 H   0  0  0  1  0  0  0  0  0  0  0  0
  -54.9139  -16.5211   80.2404 H   0  0  0  1  0  0  0  0  0  0  0  0
  -56.9089  -15.7660   80.4391 C   0  0  0  1  0  0  0  0  0  0  0  0
  -56.8406  -15.6630   81.5265 H   0  0  0  1  0  0  0  0  0  0  0  0
  -57.4061  -16.7141   80.2153 H   0  0  0  1  0  0  0  0  0  0  0  0
  -57.5408  -14.9575   80.0574 H   0  0  0  1  0  0  0  0  0  0  0  0
  -53.0611  -17.6847   76.1205 C   0  0  0  1  0  0  0  0  0  0  0  0
  -52.2303  -17.0180   76.3756 H   0  0  0  1  0  0  0  0  0  0  0  0
  -53.0075  -18.5223   76.8275 H   0  0  0  1  0  0  0  0  0  0  0  0
  -52.8985  -18.2124   74.6877 C   0  0  0  1  0  0  0  0  0  0  0  0
  -53.7194  -18.8890   74.4502 H   0  0  0  1  0  0  0  0  0  0  0  0
  -52.9096  -17.3705   73.9955 H   0  0  0  1  0  0  0  0  0  0  0  0
  -51.5505  -18.9768   74.5361 C   0  0  0  1  0  0  0  0  0  0  0  0
  -51.5855  -19.8971   75.1192 H   0  0  0  1  0  0  0  0  0  0  0  0
  -50.7337  -18.3504   74.8947 H   0  0  0  1  0  0  0  0  0  0  0  0
  -51.3372  -19.2991   73.1251 N   0  0  0  1  0  0  0  0  0  0  0  0
  -52.0141  -18.9302   72.4726 H   0  0  0  1  0  0  0  0  0  0  0  0
  -50.2934  -20.0658   72.5771 C   0  0  0  1  0  0  0  0  0  0  0  0
  -49.4082  -20.5320   73.3138 O   0  0  0  1  0  0  0  0  0  0  0  0
  -50.4600  -20.2550   71.1740 N   0  0  0  1  0  0  0  0  0  0  0  0
  -51.2943  -19.8326   70.7923 H   0  0  0  1  0  0  0  0  0  0  0  0
  -49.6900  -20.9060   70.2590 C   0  0  0  1  0  0  0  0  0  0  0  0
  -50.2570  -20.8250   69.0000 N   0  0  0  1  0  0  0  0  0  0  0  0
  -49.8842  -21.3783   68.2417 H   0  0  0  1  0  0  0  0  0  0  0  0
  -51.0438  -20.2125   68.8389 H   0  0  0  1  0  0  0  0  0  0  0  0
  -48.6290  -21.7900   70.2920 N   0  0  0  1  0  0  0  0  0  0  0  0
  -47.7070  -22.1200   71.3230 C   0  0  0  1  0  0  0  0  0  0  0  0
  -48.1435  -21.9395   72.3054 H   0  0  0  1  0  0  0  0  0  0  0  0
  -47.3992  -23.1630   71.2482 H   0  0  0  1  0  0  0  0  0  0  0  0
  -46.5220  -21.1840   71.0740 C   0  0  0  1  0  0  0  0  0  0  0  0
  -46.9258  -20.2178   70.7716 H   0  0  0  1  0  0  0  0  0  0  0  0
  -45.9869  -21.0750   72.0173 H   0  0  0  1  0  0  0  0  0  0  0  0
  -45.4860  -21.6160   69.9960 C   0  0  0  1  0  0  0  0  0  0  0  0
  -45.9831  -21.6765   69.0278 H   0  0  0  1  0  0  0  0  0  0  0  0
  -45.0840  -22.5942   70.2597 H   0  0  0  1  0  0  0  0  0  0  0  0
  -44.2930  -20.5720   69.9030 C   0  0  0  1  0  0  0  0  0  0  0  0
  -43.4175  -20.9189   69.3542 H   0  0  0  1  0  0  0  0  0  0  0  0
  -43.9430  -20.2610   71.3950 C   0  0  0  1  0  0  0  0  0  0  0  0
  -43.2680  -21.2970   72.0370 N   0  0  0  1  0  0  0  0  0  0  0  0
  -42.9631  -22.0791   71.4753 H   0  0  0  1  0  0  0  0  0  0  0  0
  -42.9760  -21.3290   73.4430 C   0  0  0  1  0  0  0  0  0  0  0  0
  -42.1220  -21.9707   73.6596 H   0  0  0  1  0  0  0  0  0  0  0  0
  -42.7882  -20.3295   73.8353 H   0  0  0  1  0  0  0  0  0  0  0  0
  -44.2750  -21.9160   74.0000 C   0  0  0  1  0  0  0  0  0  0  0  0
  -44.6710  -23.2570   73.6750 C   0  0  0  1  0  0  0  0  0  0  0  0
  -44.0095  -23.8778   73.0890 H   0  0  0  1  0  0  0  0  0  0  0  0
  -45.9140  -23.7810   74.1090 C   0  0  0  1  0  0  0  0  0  0  0  0
  -46.2001  -24.7938   73.8667 H   0  0  0  1  0  0  0  0  0  0  0  0
  -46.7720  -22.9500   74.8660 C   0  0  0  1  0  0  0  0  0  0  0  0
  -48.0010  -23.3600   75.3380 O   0  0  0  1  0  0  0  0  0  0  0  0
  -48.4837  -22.6994   75.8401 H   0  0  0  1  0  0  0  0  0  0  0  0
  -46.3920  -21.6040   75.1900 C   0  0  0  1  0  0  0  0  0  0  0  0
  -47.0635  -20.9775   75.7583 H   0  0  0  1  0  0  0  0  0  0  0  0
  -45.1510  -21.0990   74.7710 C   0  0  0  1  0  0  0  0  0  0  0  0
  -44.8607  -20.0922   75.0329 H   0  0  0  1  0  0  0  0  0  0  0  0
  -44.2390  -19.1780   71.9410 O   0  0  0  1  0  0  0  0  0  0  0  0
  -44.8310  -19.3810   69.2410 N   0  0  0  1  0  0  0  0  0  0  0  0
  -45.3418  -18.7187   69.8071 H   0  0  0  1  0  0  0  0  0  0  0  0
  -44.6870  -19.1000   67.8890 C   0  0  0  1  0  0  0  0  0  0  0  0
  -44.0790  -19.8190   67.1090 O   0  0  0  1  0  0  0  0  0  0  0  0
  -45.4070  -17.8340   67.4640 C   0  0  0  1  0  0  0  0  0  0  0  0
  -45.5191  -17.1446   68.3008 H   0  0  0  1  0  0  0  0  0  0  0  0
  -46.7920  -18.2790   66.9880 C   0  0  0  1  0  0  0  0  0  0  0  0
  -47.9390  -17.9030   67.6910 C   0  0  0  1  0  0  0  0  0  0  0  0
  -47.8686  -17.2440   68.5437 H   0  0  0  1  0  0  0  0  0  0  0  0
  -49.1880  -18.3970   67.2700 C   0  0  0  1  0  0  0  0  0  0  0  0
  -50.0790  -18.1102   67.8088 H   0  0  0  1  0  0  0  0  0  0  0  0
  -46.9160  -19.1540   65.8530 C   0  0  0  1  0  0  0  0  0  0  0  0
  -46.0285  -19.4383   65.3071 H   0  0  0  1  0  0  0  0  0  0  0  0
  -48.1600  -19.6460   65.4390 C   0  0  0  1  0  0  0  0  0  0  0  0
  -48.2363  -20.3059   64.5875 H   0  0  0  1  0  0  0  0  0  0  0  0
  -49.3010  -19.2650   66.1510 C   0  0  0  1  0  0  0  0  0  0  0  0
  -50.2712  -19.6315   65.8496 H   0  0  0  1  0  0  0  0  0  0  0  0
  -44.6090  -16.9290   66.5050 C   0  0  0  1  0  0  0  0  0  0  0  0
  -43.2450  -16.6910   66.7460 C   0  0  0  1  0  0  0  0  0  0  0  0
  -42.7509  -17.1929   67.5647 H   0  0  0  1  0  0  0  0  0  0  0  0
  -42.5140  -15.8010   65.9270 C   0  0  0  1  0  0  0  0  0  0  0  0
  -41.4684  -15.6253   66.1325 H   0  0  0  1  0  0  0  0  0  0  0  0
  -43.1280  -15.1420   64.8500 C   0  0  0  1  0  0  0  0  0  0  0  0
  -42.5627  -14.4605   64.2316 H   0  0  0  1  0  0  0  0  0  0  0  0
  -44.4780  -15.3790   64.5890 C   0  0  0  1  0  0  0  0  0  0  0  0
  -44.9601  -14.8861   63.7577 H   0  0  0  1  0  0  0  0  0  0  0  0
  -45.2150  -16.2600   65.4070 C   0  0  0  1  0  0  0  0  0  0  0  0
  -46.2603  -16.4297   65.1951 H   0  0  0  1  0  0  0  0  0  0  0  0
  -56.4245  -15.3581   77.5935 O   0  0  0  1  0  0  0  0  0  0  0  0
  1  2  1  0  0  0  0
  1  3  1  0  0  0  0
  1  4  1  0  0  0  0
  1 14  1  0  0  0  0
  4  5  1  0  0  0  0
  4  6  1  0  0  0  0
  6  7  1  0  0  0  0
  6 92  2  0  0  0  0
  7  8  1  0  0  0  0
  7  9  1  0  0  0  0
  7 10  1  0  0  0  0
 10 11  1  0  0  0  0
 10 12  1  0  0  0  0
 10 13  1  0  0  0  0
 14 15  1  0  0  0  0
 14 16  1  0  0  0  0
 14 17  1  0  0  0  0
 17 18  1  0  0  0  0
 17 19  1  0  0  0  0
 17 20  1  0  0  0  0
 20 21  1  0  0  0  0
 20 22  1  0  0  0  0
 20 23  1  0  0  0  0
 23 24  1  0  0  0  0
 23 25  1  0  0  0  0
 25 26  2  0  0  0  0
 25 27  1  0  0  0  0
 27 28  1  0  0  0  0
 27 29  1  0  0  0  0
 29 30  1  0  0  0  0
 29 33  2  0  0  0  0
 30 31  1  0  0  0  0
 30 32  1  0  0  0  0
 33 34  1  0  0  0  0
 34 35  1  0  0  0  0
 34 36  1  0  0  0  0
 34 37  1  0  0  0  0
 37 38  1  0  0  0  0
 37 39  1  0  0  0  0
 37 40  1  0  0  0  0
 40 41  1  0  0  0  0
 40 42  1  0  0  0  0
 40 43  1  0  0  0  0
 43 44  1  0  0  0  0
 43 45  1  0  0  0  0
 43 64  1  0  0  0  0
 45 46  1  0  0  0  0
 45 63  2  0  0  0  0
 46 47  1  0  0  0  0
 46 48  1  0  0  0  0
 48 49  1  0  0  0  0
 48 50  1  0  0  0  0
 48 51  1  0  0  0  0
 51 52  1  0  0  0  0
 51 61  2  0  0  0  0
 52 53  1  0  0  0  0
 52 54  2  0  0  0  0
 54 55  1  0  0  0  0
 54 56  1  0  0  0  0
 56 57  1  0  0  0  0
 56 59  2  0  0  0  0
 57 58  1  0  0  0  0
 59 60  1  0  0  0  0
 59 61  1  0  0  0  0
 61 62  1  0  0  0  0
 64 65  1  0  0  0  0
 64 66  1  0  0  0  0
 66 67  2  0  0  0  0
 66 68  1  0  0  0  0
 68 69  1  0  0  0  0
 68 70  1  0  0  0  0
 68 81  1  0  0  0  0
 70 71  2  0  0  0  0
 70 75  1  0  0  0  0
 71 72  1  0  0  0  0
 71 73  1  0  0  0  0
 73 74  1  0  0  0  0
 73 79  2  0  0  0  0
 75 76  1  0  0  0  0
 75 77  2  0  0  0  0
 77 78  1  0  0  0  0
 77 79  1  0  0  0  0
 79 80  1  0  0  0  0
 81 82  1  0  0  0  0
 81 90  2  0  0  0  0
 82 83  1  0  0  0  0
 82 84  2  0  0  0  0
 84 85  1  0  0  0  0
 84 86  1  0  0  0  0
 86 87  1  0  0  0  0
 86 88  2  0  0  0  0
 88 89  1  0  0  0  0
 88 90  1  0  0  0  0
 90 91  1  0  0  0  0
M  END
> <ConfScore>
-0.651993 

> <SampleByParts>
10 7 6 92 4 1 14 17 20 23 25 26 27 29 30 33

$$$$
NPY1_MK299_12302016.pdb.B
  MOE2014           3D

 92 94  0  0  0  0  0  0  0  0999 V2000
  -54.3338  -16.8900   76.3280 C   0  0  0  1  0  0  0  0  0  0  0  0
  -54.2688  -15.9721   75.7368 H   0  0  0  1  0  0  0  0  0  0  0  0
  -55.2243  -17.4396   76.0053 H   0  0  0  1  0  0  0  0  0  0  0  0
  -54.5242  -16.5553   77.7308 N   0  0  0  1  0  0  0  0  0  0  0  0
  -53.9007  -16.9844   78.4041 H   0  0  0  1  0  0  0  0  0  0  0  0
  -55.4491  -15.7218   78.2992 C   0  0  0  1  0  0  0  0  0  0  0  0
  -55.3960  -15.5441   79.8044 C   0  0  0  1  0  0  0  0  0  0  0  0
  -54.8553  -14.6179   80.0271 H   0  0  0  1  0  0  0  0  0  0  0  0
  -54.8456  -16.3818   80.2439 H   0  0  0  1  0  0  0  0  0  0  0  0
  -56.7781  -15.4758   80.4290 C   0  0  0  1  0  0  0  0  0  0  0  0
  -56.7019  -15.3612   81.5147 H   0  0  0  1  0  0  0  0  0  0  0  0
  -57.3453  -16.3872   80.2197 H   0  0  0  1  0  0  0  0  0  0  0  0
  -57.3475  -14.6281   80.0342 H   0  0  0  1  0  0  0  0  0  0  0  0
  -53.0869  -17.7460   76.1443 C   0  0  0  1  0  0  0  0  0  0  0  0
  -52.2285  -17.2053   76.5571 H   0  0  0  1  0  0  0  0  0  0  0  0
  -53.1791  -18.6668   76.7342 H   0  0  0  1  0  0  0  0  0  0  0  0
  -52.8323  -18.1035   74.6729 C   0  0  0  1  0  0  0  0  0  0  0  0
  -53.6836  -18.6572   74.2769 H   0  0  0  1  0  0  0  0  0  0  0  0
  -52.6991  -17.1847   74.1018 H   0  0  0  1  0  0  0  0  0  0  0  0
  -51.5505  -18.9768   74.5361 C   0  0  0  1  0  0  0  0  0  0  0  0
  -51.6741  -19.8977   75.1059 H   0  0  0  1  0  0  0  0  0  0  0  0
  -50.6913  -18.4257   74.9183 H   0  0  0  1  0  0  0  0  0  0  0  0
  -51.3372  -19.2991   73.1251 N   0  0  0  1  0  0  0  0  0  0  0  0
  -52.0141  -18.9302   72.4726 H   0  0  0  1  0  0  0  0  0  0  0  0
  -50.2934  -20.0658   72.5771 C   0  0  0  1  0  0  0  0  0  0  0  0
  -49.4082  -20.5320   73.3138 O   0  0  0  1  0  0  0  0  0  0  0  0
  -50.4600  -20.2550   71.1740 N   0  0  0  1  0  0  0  0  0  0  0  0
  -51.2943  -19.8326   70.7923 H   0  0  0  1  0  0  0  0  0  0  0  0
  -49.6900  -20.9060   70.2590 C   0  0  0  1  0  0  0  0  0  0  0  0
  -50.2570  -20.8250   69.0000 N   0  0  0  1  0  0  0  0  0  0  0  0
  -49.8842  -21.3783   68.2417 H   0  0  0  1  0  0  0  0  0  0  0  0
  -51.0438  -20.2125   68.8389 H   0  0  0  1  0  0  0  0  0  0  0  0
  -48.6290  -21.7900   70.2920 N   0  0  0  1  0  0  0  0  0  0  0  0
  -47.7070  -22.1200   71.3230 C   0  0  0  1  0  0  0  0  0  0  0  0
  -48.1435  -21.9395   72.3054 H   0  0  0  1  0  0  0  0  0  0  0  0
  -47.3992  -23.1630   71.2482 H   0  0  0  1  0  0  0  0  0  0  0  0
  -46.5220  -21.1840   71.0740 C   0  0  0  1  0  0  0  0  0  0  0  0
  -46.9258  -20.2178   70.7716 H   0  0  0  1  0  0  0  0  0  0  0  0
  -45.9869  -21.0750   72.0173 H   0  0  0  1  0  0  0  0  0  0  0  0
  -45.4860  -21.6160   69.9960 C   0  0  0  1  0  0  0  0  0  0  0  0
  -45.9831  -21.6765   69.0278 H   0  0  0  1  0  0  0  0  0  0  0  0
  -45.0840  -22.5942   70.2597 H   0  0  0  1  0  0  0  0  0  0  0  0
  -44.2930  -20.5720   69.9030 C   0  0  0  1  0  0  0  0  0  0  0  0
  -43.4175  -20.9189   69.3542 H   0  0  0  1  0  0  0  0  0  0  0  0
  -43.9430  -20.2610   71.3950 C   0  0  0  1  0  0  0  0  0  0  0  0
  -43.2680  -21.2970   72.0370 N   0  0  0  1  0  0  0  0  0  0  0  0
  -42.9631  -22.0791   71.4753 H   0  0  0  1  0  0  0  0  0  0  0  0
  -42.9760  -21.3290   73.4430 C   0  0  0  1  0  0  0  0  0  0  0  0
  -42.1220  -21.9707   73.6596 H   0  0  0  1  0  0  0  0  0  0  0  0
  -42.7882  -20.3295   73.8353 H   0  0  0  1  0  0  0  0  0  0  0  0
  -44.2750  -21.9160   74.0000 C   0  0  0  1  0  0  0  0  0  0  0  0
  -44.6710  -23.2570   73.6750 C   0  0  0  1  0  0  0  0  0  0  0  0
  -44.0095  -23.8778   73.0890 H   0  0  0  1  0  0  0  0  0  0  0  0
  -45.9140  -23.7810   74.1090 C   0  0  0  1  0  0  0  0  0  0  0  0
  -46.2001  -24.7938   73.8667 H   0  0  0  1  0  0  0  0  0  0  0  0
  -46.7720  -22.9500   74.8660 C   0  0  0  1  0  0  0  0  0  0  0  0
  -48.0010  -23.3600   75.3380 O   0  0  0  1  0  0  0  0  0  0  0  0
  -48.4837  -22.6994   75.8401 H   0  0  0  1  0  0  0  0  0  0  0  0
  -46.3920  -21.6040   75.1900 C   0  0  0  1  0  0  0  0  0  0  0  0
  -47.0635  -20.9775   75.7583 H   0  0  0  1  0  0  0  0  0  0  0  0
  -45.1510  -21.0990   74.7710 C   0  0  0  1  0  0  0  0  0  0  0  0
  -44.8607  -20.0922   75.0329 H   0  0  0  1  0  0  0  0  0  0  0  0
  -44.2390  -19.1780   71.9410 O   0  0  0  1  0  0  0  0  0  0  0  0
  -44.8310  -19.3810   69.2410 N   0  0  0  1  0  0  0  0  0  0  0  0
  -45.3418  -18.7187   69.8071 H   0  0  0  1  0  0  0  0  0  0  0  0
  -44.6870  -19.1000   67.8890 C   0  0  0  1  0  0  0  0  0  0  0  0
  -44.0790  -19.8190   67.1090 O   0  0  0  1  0  0  0  0  0  0  0  0
  -45.4070  -17.8340   67.4640 C   0  0  0  1  0  0  0  0  0  0  0  0
  -45.5191  -17.1446   68.3008 H   0  0  0  1  0  0  0  0  0  0  0  0
  -46.7920  -18.2790   66.9880 C   0  0  0  1  0  0  0  0  0  0  0  0
  -47.9390  -17.9030   67.6910 C   0  0  0  1  0  0  0  0  0  0  0  0
  -47.8686  -17.2440   68.5437 H   0  0  0  1  0  0  0  0  0  0  0  0
  -49.1880  -18.3970   67.2700 C   0  0  0  1  0  0  0  0  0  0  0  0
  -50.0790  -18.1102   67.8088 H   0  0  0  1  0  0  0  0  0  0  0  0
  -46.9160  -19.1540   65.8530 C   0  0  0  1  0  0  0  0  0  0  0  0
  -46.0285  -19.4383   65.3071 H   0  0  0  1  0  0  0  0  0  0  0  0
  -48.1600  -19.6460   65.4390 C   0  0  0  1  0  0  0  0  0  0  0  0
  -48.2363  -20.3059   64.5875 H   0  0  0  1  0  0  0  0  0  0  0  0
  -49.3010  -19.2650   66.1510 C   0  0  0  1  0  0  0  0  0  0  0  0
  -50.2712  -19.6315   65.8496 H   0  0  0  1  0  0  0  0  0  0  0  0
  -44.6090  -16.9290   66.5050 C   0  0  0  1  0  0  0  0  0  0  0  0
  -43.2450  -16.6910   66.7460 C   0  0  0  1  0  0  0  0  0  0  0  0
  -42.7509  -17.1929   67.5647 H   0  0  0  1  0  0  0  0  0  0  0  0
  -42.5140  -15.8010   65.9270 C   0  0  0  1  0  0  0  0  0  0  0  0
  -41.4684  -15.6253   66.1325 H   0  0  0  1  0  0  0  0  0  0  0  0
  -43.1280  -15.1420   64.8500 C   0  0  0  1  0  0  0  0  0  0  0  0
  -42.5627  -14.4605   64.2316 H   0  0  0  1  0  0  0  0  0  0  0  0
  -44.4780  -15.3790   64.5890 C   0  0  0  1  0  0  0  0  0  0  0  0
  -44.9601  -14.8861   63.7577 H   0  0  0  1  0  0  0  0  0  0  0  0
  -45.2150  -16.2600   65.4070 C   0  0  0  1  0  0  0  0  0  0  0  0
  -46.2603  -16.4297   65.1951 H   0  0  0  1  0  0  0  0  0  0  0  0
  -56.2653  -15.1502   77.5778 O   0  0  0  1  0  0  0  0  0  0  0  0
  1  2  1  0  0  0  0
  1  3  1  0  0  0  0
  1  4  1  0  0  0  0
  1 14  1  0  0  0  0
  4  5  1  0  0  0  0
  4  6  1  0  0  0  0
  6  7  1  0  0  0  0
  6 92  2  0  0  0  0
  7  8  1  0  0  0  0
  7  9  1  0  0  0  0
  7 10  1  0  0  0  0
 10 11  1  0  0  0  0
 10 12  1  0  0  0  0
 10 13  1  0  0  0  0
 14 15  1  0  0  0  0
 14 16  1  0  0  0  0
 14 17  1  0  0  0  0
 17 18  1  0  0  0  0
 17 19  1  0  0  0  0
 17 20  1  0  0  0  0
 20 21  1  0  0  0  0
 20 22  1  0  0  0  0
 20 23  1  0  0  0  0
 23 24  1  0  0  0  0
 23 25  1  0  0  0  0
 25 26  2  0  0  0  0
 25 27  1  0  0  0  0
 27 28  1  0  0  0  0
 27 29  1  0  0  0  0
 29 30  1  0  0  0  0
 29 33  2  0  0  0  0
 30 31  1  0  0  0  0
 30 32  1  0  0  0  0
 33 34  1  0  0  0  0
 34 35  1  0  0  0  0
 34 36  1  0  0  0  0
 34 37  1  0  0  0  0
 37 38  1  0  0  0  0
 37 39  1  0  0  0  0
 37 40  1  0  0  0  0
 40 41  1  0  0  0  0
 40 42  1  0  0  0  0
 40 43  1  0  0  0  0
 43 44  1  0  0  0  0
 43 45  1  0  0  0  0
 43 64  1  0  0  0  0
 45 46  1  0  0  0  0
 45 63  2  0  0  0  0
 46 47  1  0  0  0  0
 46 48  1  0  0  0  0
 48 49  1  0  0  0  0
 48 50  1  0  0  0  0
 48 51  1  0  0  0  0
 51 52  1  0  0  0  0
 51 61  2  0  0  0  0
 52 53  1  0  0  0  0
 52 54  2  0  0  0  0
 54 55  1  0  0  0  0
 54 56  1  0  0  0  0
 56 57  1  0  0  0  0
 56 59  2  0  0  0  0
 57 58  1  0  0  0  0
 59 60  1  0  0  0  0
 59 61  1  0  0  0  0
 61 62  1  0  0  0  0
 64 65  1  0  0  0  0
 64 66  1  0  0  0  0
 66 67  2  0  0  0  0
 66 68  1  0  0  0  0
 68 69  1  0  0  0  0
 68 70  1  0  0  0  0
 68 81  1  0  0  0  0
 70 71  2  0  0  0  0
 70 75  1  0  0  0  0
 71 72  1  0  0  0  0
 71 73  1  0  0  0  0
 73 74  1  0  0  0  0
 73 79  2  0  0  0  0
 75 76  1  0  0  0  0
 75 77  2  0  0  0  0
 77 78  1  0  0  0  0
 77 79  1  0  0  0  0
 79 80  1  0  0  0  0
 81 82  1  0  0  0  0
 81 90  2  0  0  0  0
 82 83  1  0  0  0  0
 82 84  2  0  0  0  0
 84 85  1  0  0  0  0
 84 86  1  0  0  0  0
 86 87  1  0  0  0  0
 86 88  2  0  0  0  0
 88 89  1  0  0  0  0
 88 90  1  0  0  0  0
 90 91  1  0  0  0  0
M  END
> <ConfScore>
-0.651993 

> <SampleByParts>
10 7 6 92 4 1 14 17 20 23 25 26 27 29 30 33

$$$$
NPY1_MK299_12302016.pdb.B
  MOE2014           3D

 92 94  0  0  0  0  0  0  0  0999 V2000
  -54.2566  -16.7787   76.3136 C   0  0  0  1  0  0  0  0  0  0  0  0
  -55.1873  -17.3146   76.1064 H   0  0  0  1  0  0  0  0  0  0  0  0
  -54.3027  -16.4025   77.3410 H   0  0  0  1  0  0  0  0  0  0  0  0
  -54.1545  -15.6205   75.4394 N   0  0  0  1  0  0  0  0  0  0  0  0
  -53.3100  -15.0637   75.4954 H   0  0  0  1  0  0  0  0  0  0  0  0
  -55.0561  -15.1517   74.5225 C   0  0  0  1  0  0  0  0  0  0  0  0
  -54.6419  -13.9574   73.6847 C   0  0  0  1  0  0  0  0  0  0  0  0
  -54.1914  -14.3228   72.7556 H   0  0  0  1  0  0  0  0  0  0  0  0
  -53.8897  -13.3806   74.2320 H   0  0  0  1  0  0  0  0  0  0  0  0
  -55.8130  -13.0520   73.3473 C   0  0  0  1  0  0  0  0  0  0  0  0
  -55.4762  -12.1957   72.7550 H   0  0  0  1  0  0  0  0  0  0  0  0
  -56.2874  -12.6738   74.2573 H   0  0  0  1  0  0  0  0  0  0  0  0
  -56.5732  -13.5893   72.7711 H   0  0  0  1  0  0  0  0  0  0  0  0
  -53.0506  -17.6928   76.1373 C   0  0  0  1  0  0  0  0  0  0  0  0
  -52.1707  -17.1951   76.5591 H   0  0  0  1  0  0  0  0  0  0  0  0
  -53.1917  -18.6100   76.7233 H   0  0  0  1  0  0  0  0  0  0  0  0
  -52.8009  -18.0578   74.6669 C   0  0  0  1  0  0  0  0  0  0  0  0
  -53.6673  -18.5847   74.2671 H   0  0  0  1  0  0  0  0  0  0  0  0
  -52.6367  -17.1435   74.0967 H   0  0  0  1  0  0  0  0  0  0  0  0
  -51.5464  -18.9706   74.5353 C   0  0  0  1  0  0  0  0  0  0  0  0
  -51.7011  -19.8874   75.1043 H   0  0  0  1  0  0  0  0  0  0  0  0
  -50.6720  -18.4466   74.9214 H   0  0  0  1  0  0  0  0  0  0  0  0
  -51.3372  -19.2991   73.1251 N   0  0  0  1  0  0  0  0  0  0  0  0
  -52.0173  -18.9350   72.4732 H   0  0  0  1  0  0  0  0  0  0  0  0
  -50.2934  -20.0658   72.5771 C   0  0  0  1  0  0  0  0  0  0  0  0
  -49.4082  -20.5320   73.3138 O   0  0  0  1  0  0  0  0  0  0  0  0
  -50.4600  -20.2550   71.1740 N   0  0  0  1  0  0  0  0  0  0  0  0
  -51.2943  -19.8326   70.7923 H   0  0  0  1  0  0  0  0  0  0  0  0
  -49.6900  -20.9060   70.2590 C   0  0  0  1  0  0  0  0  0  0  0  0
  -50.2570  -20.8250   69.0000 N   0  0  0  1  0  0  0  0  0  0  0  0
  -49.8842  -21.3783   68.2417 H   0  0  0  1  0  0  0  0  0  0  0  0
  -51.0438  -20.2125   68.8389 H   0  0  0  1  0  0  0  0  0  0  0  0
  -48.6290  -21.7900   70.2920 N   0  0  0  1  0  0  0  0  0  0  0  0
  -47.7070  -22.1200   71.3230 C   0  0  0  1  0  0  0  0  0  0  0  0
  -48.1435  -21.9395   72.3054 H   0  0  0  1  0  0  0  0  0  0  0  0
  -47.3992  -23.1630   71.2482 H   0  0  0  1  0  0  0  0  0  0  0  0
  -46.5220  -21.1840   71.0740 C   0  0  0  1  0  0  0  0  0  0  0  0
  -46.9258  -20.2178   70.7716 H   0  0  0  1  0  0  0  0  0  0  0  0
  -45.9869  -21.0750   72.0173 H   0  0  0  1  0  0  0  0  0  0  0  0
  -45.4860  -21.6160   69.9960 C   0  0  0  1  0  0  0  0  0  0  0  0
  -45.9831  -21.6765   69.0278 H   0  0  0  1  0  0  0  0  0  0  0  0
  -45.0840  -22.5942   70.2597 H   0  0  0  1  0  0  0  0  0  0  0  0
  -44.2930  -20.5720   69.9030 C   0  0  0  1  0  0  0  0  0  0  0  0
  -43.4175  -20.9189   69.3542 H   0  0  0  1  0  0  0  0  0  0  0  0
  -43.9430  -20.2610   71.3950 C   0  0  0  1  0  0  0  0  0  0  0  0
  -43.2680  -21.2970   72.0370 N   0  0  0  1  0  0  0  0  0  0  0  0
  -42.9631  -22.0791   71.4753 H   0  0  0  1  0  0  0  0  0  0  0  0
  -42.9760  -21.3290   73.4430 C   0  0  0  1  0  0  0  0  0  0  0  0
  -42.1220  -21.9707   73.6596 H   0  0  0  1  0  0  0  0  0  0  0  0
  -42.7882  -20.3295   73.8353 H   0  0  0  1  0  0  0  0  0  0  0  0
  -44.2750  -21.9160   74.0000 C   0  0  0  1  0  0  0  0  0  0  0  0
  -44.6710  -23.2570   73.6750 C   0  0  0  1  0  0  0  0  0  0  0  0
  -44.0095  -23.8778   73.0890 H   0  0  0  1  0  0  0  0  0  0  0  0
  -45.9140  -23.7810   74.1090 C   0  0  0  1  0  0  0  0  0  0  0  0
  -46.2001  -24.7938   73.8667 H   0  0  0  1  0  0  0  0  0  0  0  0
  -46.7720  -22.9500   74.8660 C   0  0  0  1  0  0  0  0  0  0  0  0
  -48.0010  -23.3600   75.3380 O   0  0  0  1  0  0  0  0  0  0  0  0
  -48.4837  -22.6994   75.8401 H   0  0  0  1  0  0  0  0  0  0  0  0
  -46.3920  -21.6040   75.1900 C   0  0  0  1  0  0  0  0  0  0  0  0
  -47.0635  -20.9775   75.7583 H   0  0  0  1  0  0  0  0  0  0  0  0
  -45.1510  -21.0990   74.7710 C   0  0  0  1  0  0  0  0  0  0  0  0
  -44.8607  -20.0922   75.0329 H   0  0  0  1  0  0  0  0  0  0  0  0
  -44.2390  -19.1780   71.9410 O   0  0  0  1  0  0  0  0  0  0  0  0
  -44.8310  -19.3810   69.2410 N   0  0  0  1  0  0  0  0  0  0  0  0
  -45.3418  -18.7187   69.8071 H   0  0  0  1  0  0  0  0  0  0  0  0
  -44.6870  -19.1000   67.8890 C   0  0  0  1  0  0  0  0  0  0  0  0
  -44.0790  -19.8190   67.1090 O   0  0  0  1  0  0  0  0  0  0  0  0
  -45.4070  -17.8340   67.4640 C   0  0  0  1  0  0  0  0  0  0  0  0
  -45.5191  -17.1446   68.3008 H   0  0  0  1  0  0  0  0  0  0  0  0
  -46.7920  -18.2790   66.9880 C   0  0  0  1  0  0  0  0  0  0  0  0
  -47.9390  -17.9030   67.6910 C   0  0  0  1  0  0  0  0  0  0  0  0
  -47.8686  -17.2440   68.5437 H   0  0  0  1  0  0  0  0  0  0  0  0
  -49.1880  -18.3970   67.2700 C   0  0  0  1  0  0  0  0  0  0  0  0
  -50.0790  -18.1102   67.8088 H   0  0  0  1  0  0  0  0  0  0  0  0
  -46.9160  -19.1540   65.8530 C   0  0  0  1  0  0  0  0  0  0  0  0
  -46.0285  -19.4383   65.3071 H   0  0  0  1  0  0  0  0  0  0  0  0
  -48.1600  -19.6460   65.4390 C   0  0  0  1  0  0  0  0  0  0  0  0
  -48.2363  -20.3059   64.5875 H   0  0  0  1  0  0  0  0  0  0  0  0
  -49.3010  -19.2650   66.1510 C   0  0  0  1  0  0  0  0  0  0  0  0
  -50.2712  -19.6315   65.8496 H   0  0  0  1  0  0  0  0  0  0  0  0
  -44.6090  -16.9290   66.5050 C   0  0  0  1  0  0  0  0  0  0  0  0
  -43.2450  -16.6910   66.7460 C   0  0  0  1  0  0  0  0  0  0  0  0
  -42.7509  -17.1929   67.5647 H   0  0  0  1  0  0  0  0  0  0  0  0
  -42.5140  -15.8010   65.9270 C   0  0  0  1  0  0  0  0  0  0  0  0
  -41.4684  -15.6253   66.1325 H   0  0  0  1  0  0  0  0  0  0  0  0
  -43.1280  -15.1420   64.8500 C   0  0  0  1  0  0  0  0  0  0  0  0
  -42.5627  -14.4605   64.2316 H   0  0  0  1  0  0  0  0  0  0  0  0
  -44.4780  -15.3790   64.5890 C   0  0  0  1  0  0  0  0  0  0  0  0
  -44.9601  -14.8861   63.7577 H   0  0  0  1  0  0  0  0  0  0  0  0
  -45.2150  -16.2600   65.4070 C   0  0  0  1  0  0  0  0  0  0  0  0
  -46.2603  -16.4297   65.1951 H   0  0  0  1  0  0  0  0  0  0  0  0
  -56.1435  -15.7155   74.4078 O   0  0  0  1  0  0  0  0  0  0  0  0
  1  2  1  0  0  0  0
  1  3  1  0  0  0  0
  1  4  1  0  0  0  0
  1 14  1  0  0  0  0
  4  5  1  0  0  0  0
  4  6  1  0  0  0  0
  6  7  1  0  0  0  0
  6 92  2  0  0  0  0
  7  8  1  0  0  0  0
  7  9  1  0  0  0  0
  7 10  1  0  0  0  0
 10 11  1  0  0  0  0
 10 12  1  0  0  0  0
 10 13  1  0  0  0  0
 14 15  1  0  0  0  0
 14 16  1  0  0  0  0
 14 17  1  0  0  0  0
 17 18  1  0  0  0  0
 17 19  1  0  0  0  0
 17 20  1  0  0  0  0
 20 21  1  0  0  0  0
 20 22  1  0  0  0  0
 20 23  1  0  0  0  0
 23 24  1  0  0  0  0
 23 25  1  0  0  0  0
 25 26  2  0  0  0  0
 25 27  1  0  0  0  0
 27 28  1  0  0  0  0
 27 29  1  0  0  0  0
 29 30  1  0  0  0  0
 29 33  2  0  0  0  0
 30 31  1  0  0  0  0
 30 32  1  0  0  0  0
 33 34  1  0  0  0  0
 34 35  1  0  0  0  0
 34 36  1  0  0  0  0
 34 37  1  0  0  0  0
 37 38  1  0  0  0  0
 37 39  1  0  0  0  0
 37 40  1  0  0  0  0
 40 41  1  0  0  0  0
 40 42  1  0  0  0  0
 40 43  1  0  0  0  0
 43 44  1  0  0  0  0
 43 45  1  0  0  0  0
 43 64  1  0  0  0  0
 45 46  1  0  0  0  0
 45 63  2  0  0  0  0
 46 47  1  0  0  0  0
 46 48  1  0  0  0  0
 48 49  1  0  0  0  0
 48 50  1  0  0  0  0
 48 51  1  0  0  0  0
 51 52  1  0  0  0  0
 51 61  2  0  0  0  0
 52 53  1  0  0  0  0
 52 54  2  0  0  0  0
 54 55  1  0  0  0  0
 54 56  1  0  0  0  0
 56 57  1  0  0  0  0
 56 59  2  0  0  0  0
 57 58  1  0  0  0  0
 59 60  1  0  0  0  0
 59 61  1  0  0  0  0
 61 62  1  0  0  0  0
 64 65  1  0  0  0  0
 64 66  1  0  0  0  0
 66 67  2  0  0  0  0
 66 68  1  0  0  0  0
 68 69  1  0  0  0  0
 68 70  1  0  0  0  0
 68 81  1  0  0  0  0
 70 71  2  0  0  0  0
 70 75  1  0  0  0  0
 71 72  1  0  0  0  0
 71 73  1  0  0  0  0
 73 74  1  0  0  0  0
 73 79  2  0  0  0  0
 75 76  1  0  0  0  0
 75 77  2  0  0  0  0
 77 78  1  0  0  0  0
 77 79  1  0  0  0  0
 79 80  1  0  0  0  0
 81 82  1  0  0  0  0
 81 90  2  0  0  0  0
 82 83  1  0  0  0  0
 82 84  2  0  0  0  0
 84 85  1  0  0  0  0
 84 86  1  0  0  0  0
 86 87  1  0  0  0  0
 86 88  2  0  0  0  0
 88 89  1  0  0  0  0
 88 90  1  0  0  0  0
 90 91  1  0  0  0  0
M  END
> <ConfScore>
-0.64913 

> <SampleByParts>
10 7 6 92 4 1 14 17 20 23 25 26 27 29 30 33

$$$$
NPY1_MK299_12302016.pdb.B
  MOE2014           3D

 92 94  0  0  0  0  0  0  0  0999 V2000
  -54.6970  -16.5116   75.7464 C   0  0  0  1  0  0  0  0  0  0  0  0
  -53.7680  -16.1046   76.1558 H   0  0  0  1  0  0  0  0  0  0  0  0
  -55.4862  -15.7659   75.8887 H   0  0  0  1  0  0  0  0  0  0  0  0
  -55.0863  -17.6937   76.4994 N   0  0  0  1  0  0  0  0  0  0  0  0
  -55.9169  -18.1894   76.1979 H   0  0  0  1  0  0  0  0  0  0  0  0
  -54.4821  -18.2571   77.5906 C   0  0  0  1  0  0  0  0  0  0  0  0
  -55.1189  -19.5034   78.1746 C   0  0  0  1  0  0  0  0  0  0  0  0
  -56.2052  -19.4284   78.0554 H   0  0  0  1  0  0  0  0  0  0  0  0
  -54.8896  -19.5544   79.2437 H   0  0  0  1  0  0  0  0  0  0  0  0
  -54.6311  -20.7736   77.5012 C   0  0  0  1  0  0  0  0  0  0  0  0
  -55.0999  -21.6518   77.9557 H   0  0  0  1  0  0  0  0  0  0  0  0
  -53.5465  -20.8746   77.5999 H   0  0  0  1  0  0  0  0  0  0  0  0
  -54.8719  -20.7709   76.4332 H   0  0  0  1  0  0  0  0  0  0  0  0
  -54.5416  -16.8436   74.2676 C   0  0  0  1  0  0  0  0  0  0  0  0
  -55.4866  -17.2598   73.9022 H   0  0  0  1  0  0  0  0  0  0  0  0
  -54.3737  -15.9217   73.6963 H   0  0  0  1  0  0  0  0  0  0  0  0
  -53.3911  -17.8259   74.0046 C   0  0  0  1  0  0  0  0  0  0  0  0
  -52.4506  -17.3878   74.3383 H   0  0  0  1  0  0  0  0  0  0  0  0
  -53.5781  -18.7478   74.5553 H   0  0  0  1  0  0  0  0  0  0  0  0
  -53.2881  -18.1535   72.4859 C   0  0  0  1  0  0  0  0  0  0  0  0
  -53.2094  -17.2268   71.9175 H   0  0  0  1  0  0  0  0  0  0  0  0
  -54.1768  -18.6995   72.1695 H   0  0  0  1  0  0  0  0  0  0  0  0
  -52.0999  -18.9742   72.2511 N   0  0  0  1  0  0  0  0  0  0  0  0
  -51.5175  -19.1620   73.0547 H   0  0  0  1  0  0  0  0  0  0  0  0
  -51.6792  -19.5304   71.0299 C   0  0  0  1  0  0  0  0  0  0  0  0
  -52.3233  -19.3125   69.9901 O   0  0  0  1  0  0  0  0  0  0  0  0
  -50.4600  -20.2550   71.1740 N   0  0  0  1  0  0  0  0  0  0  0  0
  -50.1058  -20.2919   72.1192 H   0  0  0  1  0  0  0  0  0  0  0  0
  -49.6900  -20.9060   70.2590 C   0  0  0  1  0  0  0  0  0  0  0  0
  -50.2570  -20.8250   69.0000 N   0  0  0  1  0  0  0  0  0  0  0  0
  -49.8842  -21.3783   68.2417 H   0  0  0  1  0  0  0  0  0  0  0  0
  -51.0438  -20.2125   68.8389 H   0  0  0  1  0  0  0  0  0  0  0  0
  -48.6290  -21.7900   70.2920 N   0  0  0  1  0  0  0  0  0  0  0  0
  -47.7070  -22.1200   71.3230 C   0  0  0  1  0  0  0  0  0  0  0  0
  -48.1435  -21.9395   72.3054 H   0  0  0  1  0  0  0  0  0  0  0  0
  -47.3992  -23.1630   71.2482 H   0  0  0  1  0  0  0  0  0  0  0  0
  -46.5220  -21.1840   71.0740 C   0  0  0  1  0  0  0  0  0  0  0  0
  -46.9258  -20.2178   70.7716 H   0  0  0  1  0  0  0  0  0  0  0  0
  -45.9869  -21.0750   72.0173 H   0  0  0  1  0  0  0  0  0  0  0  0
  -45.4860  -21.6160   69.9960 C   0  0  0  1  0  0  0  0  0  0  0  0
  -45.9831  -21.6765   69.0278 H   0  0  0  1  0  0  0  0  0  0  0  0
  -45.0840  -22.5942   70.2597 H   0  0  0  1  0  0  0  0  0  0  0  0
  -44.2930  -20.5720   69.9030 C   0  0  0  1  0  0  0  0  0  0  0  0
  -43.4175  -20.9189   69.3542 H   0  0  0  1  0  0  0  0  0  0  0  0
  -43.9430  -20.2610   71.3950 C   0  0  0  1  0  0  0  0  0  0  0  0
  -43.2680  -21.2970   72.0370 N   0  0  0  1  0  0  0  0  0  0  0  0
  -42.9631  -22.0791   71.4753 H   0  0  0  1  0  0  0  0  0  0  0  0
  -42.9760  -21.3290   73.4430 C   0  0  0  1  0  0  0  0  0  0  0  0
  -42.1220  -21.9707   73.6596 H   0  0  0  1  0  0  0  0  0  0  0  0
  -42.7882  -20.3295   73.8353 H   0  0  0  1  0  0  0  0  0  0  0  0
  -44.2750  -21.9160   74.0000 C   0  0  0  1  0  0  0  0  0  0  0  0
  -44.6710  -23.2570   73.6750 C   0  0  0  1  0  0  0  0  0  0  0  0
  -44.0095  -23.8778   73.0890 H   0  0  0  1  0  0  0  0  0  0  0  0
  -45.9140  -23.7810   74.1090 C   0  0  0  1  0  0  0  0  0  0  0  0
  -46.2001  -24.7938   73.8667 H   0  0  0  1  0  0  0  0  0  0  0  0
  -46.7720  -22.9500   74.8660 C   0  0  0  1  0  0  0  0  0  0  0  0
  -48.0010  -23.3600   75.3380 O   0  0  0  1  0  0  0  0  0  0  0  0
  -48.4837  -22.6994   75.8401 H   0  0  0  1  0  0  0  0  0  0  0  0
  -46.3920  -21.6040   75.1900 C   0  0  0  1  0  0  0  0  0  0  0  0
  -47.0635  -20.9775   75.7583 H   0  0  0  1  0  0  0  0  0  0  0  0
  -45.1510  -21.0990   74.7710 C   0  0  0  1  0  0  0  0  0  0  0  0
  -44.8607  -20.0922   75.0329 H   0  0  0  1  0  0  0  0  0  0  0  0
  -44.2390  -19.1780   71.9410 O   0  0  0  1  0  0  0  0  0  0  0  0
  -44.8310  -19.3810   69.2410 N   0  0  0  1  0  0  0  0  0  0  0  0
  -45.3418  -18.7187   69.8071 H   0  0  0  1  0  0  0  0  0  0  0  0
  -44.6870  -19.1000   67.8890 C   0  0  0  1  0  0  0  0  0  0  0  0
  -44.0790  -19.8190   67.1090 O   0  0  0  1  0  0  0  0  0  0  0  0
  -45.4070  -17.8340   67.4640 C   0  0  0  1  0  0  0  0  0  0  0  0
  -45.5191  -17.1446   68.3008 H   0  0  0  1  0  0  0  0  0  0  0  0
  -46.7920  -18.2790   66.9880 C   0  0  0  1  0  0  0  0  0  0  0  0
  -47.9390  -17.9030   67.6910 C   0  0  0  1  0  0  0  0  0  0  0  0
  -47.8686  -17.2440   68.5437 H   0  0  0  1  0  0  0  0  0  0  0  0
  -49.1880  -18.3970   67.2700 C   0  0  0  1  0  0  0  0  0  0  0  0
  -50.0790  -18.1102   67.8088 H   0  0  0  1  0  0  0  0  0  0  0  0
  -46.9160  -19.1540   65.8530 C   0  0  0  1  0  0  0  0  0  0  0  0
  -46.0285  -19.4383   65.3071 H   0  0  0  1  0  0  0  0  0  0  0  0
  -48.1600  -19.6460   65.4390 C   0  0  0  1  0  0  0  0  0  0  0  0
  -48.2363  -20.3059   64.5875 H   0  0  0  1  0  0  0  0  0  0  0  0
  -49.3010  -19.2650   66.1510 C   0  0  0  1  0  0  0  0  0  0  0  0
  -50.2712  -19.6315   65.8496 H   0  0  0  1  0  0  0  0  0  0  0  0
  -44.6090  -16.9290   66.5050 C   0  0  0  1  0  0  0  0  0  0  0  0
  -43.2450  -16.6910   66.7460 C   0  0  0  1  0  0  0  0  0  0  0  0
  -42.7509  -17.1929   67.5647 H   0  0  0  1  0  0  0  0  0  0  0  0
  -42.5140  -15.8010   65.9270 C   0  0  0  1  0  0  0  0  0  0  0  0
  -41.4684  -15.6253   66.1325 H   0  0  0  1  0  0  0  0  0  0  0  0
  -43.1280  -15.1420   64.8500 C   0  0  0  1  0  0  0  0  0  0  0  0
  -42.5627  -14.4605   64.2316 H   0  0  0  1  0  0  0  0  0  0  0  0
  -44.4780  -15.3790   64.5890 C   0  0  0  1  0  0  0  0  0  0  0  0
  -44.9601  -14.8861   63.7577 H   0  0  0  1  0  0  0  0  0  0  0  0
  -45.2150  -16.2600   65.4070 C   0  0  0  1  0  0  0  0  0  0  0  0
  -46.2603  -16.4297   65.1951 H   0  0  0  1  0  0  0  0  0  0  0  0
  -53.4571  -17.7460   78.0396 O   0  0  0  1  0  0  0  0  0  0  0  0
  1  2  1  0  0  0  0
  1  3  1  0  0  0  0
  1  4  1  0  0  0  0
  1 14  1  0  0  0  0
  4  5  1  0  0  0  0
  4  6  1  0  0  0  0
  6  7  1  0  0  0  0
  6 92  2  0  0  0  0
  7  8  1  0  0  0  0
  7  9  1  0  0  0  0
  7 10  1  0  0  0  0
 10 11  1  0  0  0  0
 10 12  1  0  0  0  0
 10 13  1  0  0  0  0
 14 15  1  0  0  0  0
 14 16  1  0  0  0  0
 14 17  1  0  0  0  0
 17 18  1  0  0  0  0
 17 19  1  0  0  0  0
 17 20  1  0  0  0  0
 20 21  1  0  0  0  0
 20 22  1  0  0  0  0
 20 23  1  0  0  0  0
 23 24  1  0  0  0  0
 23 25  1  0  0  0  0
 25 26  2  0  0  0  0
 25 27  1  0  0  0  0
 27 28  1  0  0  0  0
 27 29  1  0  0  0  0
 29 30  1  0  0  0  0
 29 33  2  0  0  0  0
 30 31  1  0  0  0  0
 30 32  1  0  0  0  0
 33 34  1  0  0  0  0
 34 35  1  0  0  0  0
 34 36  1  0  0  0  0
 34 37  1  0  0  0  0
 37 38  1  0  0  0  0
 37 39  1  0  0  0  0
 37 40  1  0  0  0  0
 40 41  1  0  0  0  0
 40 42  1  0  0  0  0
 40 43  1  0  0  0  0
 43 44  1  0  0  0  0
 43 45  1  0  0  0  0
 43 64  1  0  0  0  0
 45 46  1  0  0  0  0
 45 63  2  0  0  0  0
 46 47  1  0  0  0  0
 46 48  1  0  0  0  0
 48 49  1  0  0  0  0
 48 50  1  0  0  0  0
 48 51  1  0  0  0  0
 51 52  1  0  0  0  0
 51 61  2  0  0  0  0
 52 53  1  0  0  0  0
 52 54  2  0  0  0  0
 54 55  1  0  0  0  0
 54 56  1  0  0  0  0
 56 57  1  0  0  0  0
 56 59  2  0  0  0  0
 57 58  1  0  0  0  0
 59 60  1  0  0  0  0
 59 61  1  0  0  0  0
 61 62  1  0  0  0  0
 64 65  1  0  0  0  0
 64 66  1  0  0  0  0
 66 67  2  0  0  0  0
 66 68  1  0  0  0  0
 68 69  1  0  0  0  0
 68 70  1  0  0  0  0
 68 81  1  0  0  0  0
 70 71  2  0  0  0  0
 70 75  1  0  0  0  0
 71 72  1  0  0  0  0
 71 73  1  0  0  0  0
 73 74  1  0  0  0  0
 73 79  2  0  0  0  0
 75 76  1  0  0  0  0
 75 77  2  0  0  0  0
 77 78  1  0  0  0  0
 77 79  1  0  0  0  0
 79 80  1  0  0  0  0
 81 82  1  0  0  0  0
 81 90  2  0  0  0  0
 82 83  1  0  0  0  0
 82 84  2  0  0  0  0
 84 85  1  0  0  0  0
 84 86  1  0  0  0  0
 86 87  1  0  0  0  0
 86 88  2  0  0  0  0
 88 89  1  0  0  0  0
 88 90  1  0  0  0  0
 90 91  1  0  0  0  0
M  END
> <ConfScore>
-0.644361 

> <SampleByParts>
10 7 6 92 4 1 14 17 20 23 25 26 27 29 30 33

$$$$
NPY1_MK299_12302016.pdb.B
  MOE2014           3D

 92 94  0  0  0  0  0  0  0  0999 V2000
  -54.6516  -16.4579   75.7429 C   0  0  0  1  0  0  0  0  0  0  0  0
  -53.7957  -15.8313   76.0094 H   0  0  0  1  0  0  0  0  0  0  0  0
  -55.5642  -15.8786   75.9179 H   0  0  0  1  0  0  0  0  0  0  0  0
  -54.7045  -17.6137   76.6246 N   0  0  0  1  0  0  0  0  0  0  0  0
  -55.4352  -18.2959   76.4602 H   0  0  0  1  0  0  0  0  0  0  0  0
  -53.8908  -17.9307   77.6785 C   0  0  0  1  0  0  0  0  0  0  0  0
  -54.1779  -19.2236   78.4172 C   0  0  0  1  0  0  0  0  0  0  0  0
  -55.2601  -19.3933   78.4153 H   0  0  0  1  0  0  0  0  0  0  0  0
  -53.8438  -19.1241   79.4547 H   0  0  0  1  0  0  0  0  0  0  0  0
  -53.4860  -20.4182   77.7853 C   0  0  0  1  0  0  0  0  0  0  0  0
  -53.7038  -21.3295   78.3506 H   0  0  0  1  0  0  0  0  0  0  0  0
  -52.4017  -20.2761   77.7688 H   0  0  0  1  0  0  0  0  0  0  0  0
  -53.8206  -20.5669   76.7535 H   0  0  0  1  0  0  0  0  0  0  0  0
  -54.5732  -16.8966   74.2860 C   0  0  0  1  0  0  0  0  0  0  0  0
  -55.4656  -17.4865   74.0507 H   0  0  0  1  0  0  0  0  0  0  0  0
  -54.6086  -16.0165   73.6314 H   0  0  0  1  0  0  0  0  0  0  0  0
  -53.3050  -17.7083   73.9851 C   0  0  0  1  0  0  0  0  0  0  0  0
  -52.4232  -17.1128   74.2214 H   0  0  0  1  0  0  0  0  0  0  0  0
  -53.3079  -18.6113   74.5955 H   0  0  0  1  0  0  0  0  0  0  0  0
  -53.2576  -18.1115   72.4819 C   0  0  0  1  0  0  0  0  0  0  0  0
  -53.1667  -17.2162   71.8669 H   0  0  0  1  0  0  0  0  0  0  0  0
  -54.1721  -18.6424   72.2177 H   0  0  0  1  0  0  0  0  0  0  0  0
  -52.1033  -18.9812   72.2541 N   0  0  0  1  0  0  0  0  0  0  0  0
  -51.5662  -19.2379   73.0700 H   0  0  0  1  0  0  0  0  0  0  0  0
  -51.6594  -19.4991   71.0244 C   0  0  0  1  0  0  0  0  0  0  0  0
  -52.2687  -19.2275   69.9763 O   0  0  0  1  0  0  0  0  0  0  0  0
  -50.4600  -20.2550   71.1740 N   0  0  0  1  0  0  0  0  0  0  0  0
  -50.1228  -20.3188   72.1239 H   0  0  0  1  0  0  0  0  0  0  0  0
  -49.6900  -20.9060   70.2590 C   0  0  0  1  0  0  0  0  0  0  0  0
  -50.2570  -20.8250   69.0000 N   0  0  0  1  0  0  0  0  0  0  0  0
  -49.8842  -21.3783   68.2417 H   0  0  0  1  0  0  0  0  0  0  0  0
  -51.0438  -20.2125   68.8389 H   0  0  0  1  0  0  0  0  0  0  0  0
  -48.6290  -21.7900   70.2920 N   0  0  0  1  0  0  0  0  0  0  0  0
  -47.7070  -22.1200   71.3230 C   0  0  0  1  0  0  0  0  0  0  0  0
  -48.1435  -21.9395   72.3054 H   0  0  0  1  0  0  0  0  0  0  0  0
  -47.3992  -23.1630   71.2482 H   0  0  0  1  0  0  0  0  0  0  0  0
  -46.5220  -21.1840   71.0740 C   0  0  0  1  0  0  0  0  0  0  0  0
  -46.9258  -20.2178   70.7716 H   0  0  0  1  0  0  0  0  0  0  0  0
  -45.9869  -21.0750   72.0173 H   0  0  0  1  0  0  0  0  0  0  0  0
  -45.4860  -21.6160   69.9960 C   0  0  0  1  0  0  0  0  0  0  0  0
  -45.9831  -21.6765   69.0278 H   0  0  0  1  0  0  0  0  0  0  0  0
  -45.0840  -22.5942   70.2597 H   0  0  0  1  0  0  0  0  0  0  0  0
  -44.2930  -20.5720   69.9030 C   0  0  0  1  0  0  0  0  0  0  0  0
  -43.4175  -20.9189   69.3542 H   0  0  0  1  0  0  0  0  0  0  0  0
  -43.9430  -20.2610   71.3950 C   0  0  0  1  0  0  0  0  0  0  0  0
  -43.2680  -21.2970   72.0370 N   0  0  0  1  0  0  0  0  0  0  0  0
  -42.9631  -22.0791   71.4753 H   0  0  0  1  0  0  0  0  0  0  0  0
  -42.9760  -21.3290   73.4430 C   0  0  0  1  0  0  0  0  0  0  0  0
  -42.1220  -21.9707   73.6596 H   0  0  0  1  0  0  0  0  0  0  0  0
  -42.7882  -20.3295   73.8353 H   0  0  0  1  0  0  0  0  0  0  0  0
  -44.2750  -21.9160   74.0000 C   0  0  0  1  0  0  0  0  0  0  0  0
  -44.6710  -23.2570   73.6750 C   0  0  0  1  0  0  0  0  0  0  0  0
  -44.0095  -23.8778   73.0890 H   0  0  0  1  0  0  0  0  0  0  0  0
  -45.9140  -23.7810   74.1090 C   0  0  0  1  0  0  0  0  0  0  0  0
  -46.2001  -24.7938   73.8667 H   0  0  0  1  0  0  0  0  0  0  0  0
  -46.7720  -22.9500   74.8660 C   0  0  0  1  0  0  0  0  0  0  0  0
  -48.0010  -23.3600   75.3380 O   0  0  0  1  0  0  0  0  0  0  0  0
  -48.4837  -22.6994   75.8401 H   0  0  0  1  0  0  0  0  0  0  0  0
  -46.3920  -21.6040   75.1900 C   0  0  0  1  0  0  0  0  0  0  0  0
  -47.0635  -20.9775   75.7583 H   0  0  0  1  0  0  0  0  0  0  0  0
  -45.1510  -21.0990   74.7710 C   0  0  0  1  0  0  0  0  0  0  0  0
  -44.8607  -20.0922   75.0329 H   0  0  0  1  0  0  0  0  0  0  0  0
  -44.2390  -19.1780   71.9410 O   0  0  0  1  0  0  0  0  0  0  0  0
  -44.8310  -19.3810   69.2410 N   0  0  0  1  0  0  0  0  0  0  0  0
  -45.3418  -18.7187   69.8071 H   0  0  0  1  0  0  0  0  0  0  0  0
  -44.6870  -19.1000   67.8890 C   0  0  0  1  0  0  0  0  0  0  0  0
  -44.0790  -19.8190   67.1090 O   0  0  0  1  0  0  0  0  0  0  0  0
  -45.4070  -17.8340   67.4640 C   0  0  0  1  0  0  0  0  0  0  0  0
  -45.5191  -17.1446   68.3008 H   0  0  0  1  0  0  0  0  0  0  0  0
  -46.7920  -18.2790   66.9880 C   0  0  0  1  0  0  0  0  0  0  0  0
  -47.9390  -17.9030   67.6910 C   0  0  0  1  0  0  0  0  0  0  0  0
  -47.8686  -17.2440   68.5437 H   0  0  0  1  0  0  0  0  0  0  0  0
  -49.1880  -18.3970   67.2700 C   0  0  0  1  0  0  0  0  0  0  0  0
  -50.0790  -18.1102   67.8088 H   0  0  0  1  0  0  0  0  0  0  0  0
  -46.9160  -19.1540   65.8530 C   0  0  0  1  0  0  0  0  0  0  0  0
  -46.0285  -19.4383   65.3071 H   0  0  0  1  0  0  0  0  0  0  0  0
  -48.1600  -19.6460   65.4390 C   0  0  0  1  0  0  0  0  0  0  0  0
  -48.2363  -20.3059   64.5875 H   0  0  0  1  0  0  0  0  0  0  0  0
  -49.3010  -19.2650   66.1510 C   0  0  0  1  0  0  0  0  0  0  0  0
  -50.2712  -19.6315   65.8496 H   0  0  0  1  0  0  0  0  0  0  0  0
  -44.6090  -16.9290   66.5050 C   0  0  0  1  0  0  0  0  0  0  0  0
  -43.2450  -16.6910   66.7460 C   0  0  0  1  0  0  0  0  0  0  0  0
  -42.7509  -17.1929   67.5647 H   0  0  0  1  0  0  0  0  0  0  0  0
  -42.5140  -15.8010   65.9270 C   0  0  0  1  0  0  0  0  0  0  0  0
  -41.4684  -15.6253   66.1325 H   0  0  0  1  0  0  0  0  0  0  0  0
  -43.1280  -15.1420   64.8500 C   0  0  0  1  0  0  0  0  0  0  0  0
  -42.5627  -14.4605   64.2316 H   0  0  0  1  0  0  0  0  0  0  0  0
  -44.4780  -15.3790   64.5890 C   0  0  0  1  0  0  0  0  0  0  0  0
  -44.9601  -14.8861   63.7577 H   0  0  0  1  0  0  0  0  0  0  0  0
  -45.2150  -16.2600   65.4070 C   0  0  0  1  0  0  0  0  0  0  0  0
  -46.2603  -16.4297   65.1951 H   0  0  0  1  0  0  0  0  0  0  0  0
  -52.9671  -17.1731   77.9724 O   0  0  0  1  0  0  0  0  0  0  0  0
  1  2  1  0  0  0  0
  1  3  1  0  0  0  0
  1  4  1  0  0  0  0
  1 14  1  0  0  0  0
  4  5  1  0  0  0  0
  4  6  1  0  0  0  0
  6  7  1  0  0  0  0
  6 92  2  0  0  0  0
  7  8  1  0  0  0  0
  7  9  1  0  0  0  0
  7 10  1  0  0  0  0
 10 11  1  0  0  0  0
 10 12  1  0  0  0  0
 10 13  1  0  0  0  0
 14 15  1  0  0  0  0
 14 16  1  0  0  0  0
 14 17  1  0  0  0  0
 17 18  1  0  0  0  0
 17 19  1  0  0  0  0
 17 20  1  0  0  0  0
 20 21  1  0  0  0  0
 20 22  1  0  0  0  0
 20 23  1  0  0  0  0
 23 24  1  0  0  0  0
 23 25  1  0  0  0  0
 25 26  2  0  0  0  0
 25 27  1  0  0  0  0
 27 28  1  0  0  0  0
 27 29  1  0  0  0  0
 29 30  1  0  0  0  0
 29 33  2  0  0  0  0
 30 31  1  0  0  0  0
 30 32  1  0  0  0  0
 33 34  1  0  0  0  0
 34 35  1  0  0  0  0
 34 36  1  0  0  0  0
 34 37  1  0  0  0  0
 37 38  1  0  0  0  0
 37 39  1  0  0  0  0
 37 40  1  0  0  0  0
 40 41  1  0  0  0  0
 40 42  1  0  0  0  0
 40 43  1  0  0  0  0
 43 44  1  0  0  0  0
 43 45  1  0  0  0  0
 43 64  1  0  0  0  0
 45 46  1  0  0  0  0
 45 63  2  0  0  0  0
 46 47  1  0  0  0  0
 46 48  1  0  0  0  0
 48 49  1  0  0  0  0
 48 50  1  0  0  0  0
 48 51  1  0  0  0  0
 51 52  1  0  0  0  0
 51 61  2  0  0  0  0
 52 53  1  0  0  0  0
 52 54  2  0  0  0  0
 54 55  1  0  0  0  0
 54 56  1  0  0  0  0
 56 57  1  0  0  0  0
 56 59  2  0  0  0  0
 57 58  1  0  0  0  0
 59 60  1  0  0  0  0
 59 61  1  0  0  0  0
 61 62  1  0  0  0  0
 64 65  1  0  0  0  0
 64 66  1  0  0  0  0
 66 67  2  0  0  0  0
 66 68  1  0  0  0  0
 68 69  1  0  0  0  0
 68 70  1  0  0  0  0
 68 81  1  0  0  0  0
 70 71  2  0  0  0  0
 70 75  1  0  0  0  0
 71 72  1  0  0  0  0
 71 73  1  0  0  0  0
 73 74  1  0  0  0  0
 73 79  2  0  0  0  0
 75 76  1  0  0  0  0
 75 77  2  0  0  0  0
 77 78  1  0  0  0  0
 77 79  1  0  0  0  0
 79 80  1  0  0  0  0
 81 82  1  0  0  0  0
 81 90  2  0  0  0  0
 82 83  1  0  0  0  0
 82 84  2  0  0  0  0
 84 85  1  0  0  0  0
 84 86  1  0  0  0  0
 86 87  1  0  0  0  0
 86 88  2  0  0  0  0
 88 89  1  0  0  0  0
 88 90  1  0  0  0  0
 90 91  1  0  0  0  0
M  END
> <ConfScore>
-0.644361 

> <SampleByParts>
10 7 6 92 4 1 14 17 20 23 25 26 27 29 30 33

$$$$
NPY1_MK299_12302016.pdb.B
  MOE2014           3D

 92 94  0  0  0  0  0  0  0  0999 V2000
  -54.4476  -17.0948   76.3713 C   0  0  0  1  0  0  0  0  0  0  0  0
  -54.4427  -16.1733   75.7821 H   0  0  0  1  0  0  0  0  0  0  0  0
  -55.3075  -17.6950   76.0558 H   0  0  0  1  0  0  0  0  0  0  0  0
  -54.6431  -16.7752   77.7768 N   0  0  0  1  0  0  0  0  0  0  0  0
  -53.9455  -17.1037   78.4339 H   0  0  0  1  0  0  0  0  0  0  0  0
  -55.6605  -16.0756   78.3673 C   0  0  0  1  0  0  0  0  0  0  0  0
  -55.6184  -15.9228   79.8756 C   0  0  0  1  0  0  0  0  0  0  0  0
  -54.5709  -15.9101   80.1955 H   0  0  0  1  0  0  0  0  0  0  0  0
  -56.1117  -16.7846   80.3359 H   0  0  0  1  0  0  0  0  0  0  0  0
  -56.2984  -14.6504   80.3485 C   0  0  0  1  0  0  0  0  0  0  0  0
  -56.2611  -14.5797   81.4399 H   0  0  0  1  0  0  0  0  0  0  0  0
  -57.3474  -14.6319   80.0395 H   0  0  0  1  0  0  0  0  0  0  0  0
  -55.8100  -13.7640   79.9308 H   0  0  0  1  0  0  0  0  0  0  0  0
  -53.1546  -17.8757   76.1725 C   0  0  0  1  0  0  0  0  0  0  0  0
  -52.3230  -17.2787   76.5621 H   0  0  0  1  0  0  0  0  0  0  0  0
  -53.1791  -18.7930   76.7745 H   0  0  0  1  0  0  0  0  0  0  0  0
  -52.9068  -18.2354   74.7005 C   0  0  0  1  0  0  0  0  0  0  0  0
  -53.7301  -18.8448   74.3277 H   0  0  0  1  0  0  0  0  0  0  0  0
  -52.8408  -17.3174   74.1165 H   0  0  0  1  0  0  0  0  0  0  0  0
  -51.5770  -19.0308   74.5482 C   0  0  0  1  0  0  0  0  0  0  0  0
  -51.6333  -19.9504   75.1308 H   0  0  0  1  0  0  0  0  0  0  0  0
  -50.7458  -18.4238   74.9071 H   0  0  0  1  0  0  0  0  0  0  0  0
  -51.3713  -19.3572   73.1369 N   0  0  0  1  0  0  0  0  0  0  0  0
  -52.0818  -19.0383   72.4939 H   0  0  0  1  0  0  0  0  0  0  0  0
  -50.2934  -20.0658   72.5771 C   0  0  0  1  0  0  0  0  0  0  0  0
  -49.3802  -20.4901   73.3048 O   0  0  0  1  0  0  0  0  0  0  0  0
  -50.4600  -20.2550   71.1740 N   0  0  0  1  0  0  0  0  0  0  0  0
  -51.2943  -19.8326   70.7923 H   0  0  0  1  0  0  0  0  0  0  0  0
  -49.6900  -20.9060   70.2590 C   0  0  0  1  0  0  0  0  0  0  0  0
  -50.2570  -20.8250   69.0000 N   0  0  0  1  0  0  0  0  0  0  0  0
  -49.8842  -21.3783   68.2417 H   0  0  0  1  0  0  0  0  0  0  0  0
  -51.0438  -20.2125   68.8389 H   0  0  0  1  0  0  0  0  0  0  0  0
  -48.6290  -21.7900   70.2920 N   0  0  0  1  0  0  0  0  0  0  0  0
  -47.7070  -22.1200   71.3230 C   0  0  0  1  0  0  0  0  0  0  0  0
  -48.1435  -21.9395   72.3054 H   0  0  0  1  0  0  0  0  0  0  0  0
  -47.3992  -23.1630   71.2482 H   0  0  0  1  0  0  0  0  0  0  0  0
  -46.5220  -21.1840   71.0740 C   0  0  0  1  0  0  0  0  0  0  0  0
  -46.9258  -20.2178   70.7716 H   0  0  0  1  0  0  0  0  0  0  0  0
  -45.9869  -21.0750   72.0173 H   0  0  0  1  0  0  0  0  0  0  0  0
  -45.4860  -21.6160   69.9960 C   0  0  0  1  0  0  0  0  0  0  0  0
  -45.9831  -21.6765   69.0278 H   0  0  0  1  0  0  0  0  0  0  0  0
  -45.0840  -22.5942   70.2597 H   0  0  0  1  0  0  0  0  0  0  0  0
  -44.2930  -20.5720   69.9030 C   0  0  0  1  0  0  0  0  0  0  0  0
  -43.4175  -20.9189   69.3542 H   0  0  0  1  0  0  0  0  0  0  0  0
  -43.9430  -20.2610   71.3950 C   0  0  0  1  0  0  0  0  0  0  0  0
  -43.2680  -21.2970   72.0370 N   0  0  0  1  0  0  0  0  0  0  0  0
  -42.9631  -22.0791   71.4753 H   0  0  0  1  0  0  0  0  0  0  0  0
  -42.9760  -21.3290   73.4430 C   0  0  0  1  0  0  0  0  0  0  0  0
  -42.1220  -21.9707   73.6596 H   0  0  0  1  0  0  0  0  0  0  0  0
  -42.7882  -20.3295   73.8353 H   0  0  0  1  0  0  0  0  0  0  0  0
  -44.2750  -21.9160   74.0000 C   0  0  0  1  0  0  0  0  0  0  0  0
  -44.6710  -23.2570   73.6750 C   0  0  0  1  0  0  0  0  0  0  0  0
  -44.0095  -23.8778   73.0890 H   0  0  0  1  0  0  0  0  0  0  0  0
  -45.9140  -23.7810   74.1090 C   0  0  0  1  0  0  0  0  0  0  0  0
  -46.2001  -24.7938   73.8667 H   0  0  0  1  0  0  0  0  0  0  0  0
  -46.7720  -22.9500   74.8660 C   0  0  0  1  0  0  0  0  0  0  0  0
  -48.0010  -23.3600   75.3380 O   0  0  0  1  0  0  0  0  0  0  0  0
  -48.4837  -22.6994   75.8401 H   0  0  0  1  0  0  0  0  0  0  0  0
  -46.3920  -21.6040   75.1900 C   0  0  0  1  0  0  0  0  0  0  0  0
  -47.0635  -20.9775   75.7583 H   0  0  0  1  0  0  0  0  0  0  0  0
  -45.1510  -21.0990   74.7710 C   0  0  0  1  0  0  0  0  0  0  0  0
  -44.8607  -20.0922   75.0329 H   0  0  0  1  0  0  0  0  0  0  0  0
  -44.2390  -19.1780   71.9410 O   0  0  0  1  0  0  0  0  0  0  0  0
  -44.8310  -19.3810   69.2410 N   0  0  0  1  0  0  0  0  0  0  0  0
  -45.3418  -18.7187   69.8071 H   0  0  0  1  0  0  0  0  0  0  0  0
  -44.6870  -19.1000   67.8890 C   0  0  0  1  0  0  0  0  0  0  0  0
  -44.0790  -19.8190   67.1090 O   0  0  0  1  0  0  0  0  0  0  0  0
  -45.4070  -17.8340   67.4640 C   0  0  0  1  0  0  0  0  0  0  0  0
  -45.5191  -17.1446   68.3008 H   0  0  0  1  0  0  0  0  0  0  0  0
  -46.7920  -18.2790   66.9880 C   0  0  0  1  0  0  0  0  0  0  0  0
  -47.9390  -17.9030   67.6910 C   0  0  0  1  0  0  0  0  0  0  0  0
  -47.8686  -17.2440   68.5437 H   0  0  0  1  0  0  0  0  0  0  0  0
  -49.1880  -18.3970   67.2700 C   0  0  0  1  0  0  0  0  0  0  0  0
  -50.0790  -18.1102   67.8088 H   0  0  0  1  0  0  0  0  0  0  0  0
  -46.9160  -19.1540   65.8530 C   0  0  0  1  0  0  0  0  0  0  0  0
  -46.0285  -19.4383   65.3071 H   0  0  0  1  0  0  0  0  0  0  0  0
  -48.1600  -19.6460   65.4390 C   0  0  0  1  0  0  0  0  0  0  0  0
  -48.2363  -20.3059   64.5875 H   0  0  0  1  0  0  0  0  0  0  0  0
  -49.3010  -19.2650   66.1510 C   0  0  0  1  0  0  0  0  0  0  0  0
  -50.2712  -19.6315   65.8496 H   0  0  0  1  0  0  0  0  0  0  0  0
  -44.6090  -16.9290   66.5050 C   0  0  0  1  0  0  0  0  0  0  0  0
  -43.2450  -16.6910   66.7460 C   0  0  0  1  0  0  0  0  0  0  0  0
  -42.7509  -17.1929   67.5647 H   0  0  0  1  0  0  0  0  0  0  0  0
  -42.5140  -15.8010   65.9270 C   0  0  0  1  0  0  0  0  0  0  0  0
  -41.4684  -15.6253   66.1325 H   0  0  0  1  0  0  0  0  0  0  0  0
  -43.1280  -15.1420   64.8500 C   0  0  0  1  0  0  0  0  0  0  0  0
  -42.5627  -14.4605   64.2316 H   0  0  0  1  0  0  0  0  0  0  0  0
  -44.4780  -15.3790   64.5890 C   0  0  0  1  0  0  0  0  0  0  0  0
  -44.9601  -14.8861   63.7577 H   0  0  0  1  0  0  0  0  0  0  0  0
  -45.2150  -16.2600   65.4070 C   0  0  0  1  0  0  0  0  0  0  0  0
  -46.2603  -16.4297   65.1951 H   0  0  0  1  0  0  0  0  0  0  0  0
  -56.5474  -15.5964   77.6622 O   0  0  0  1  0  0  0  0  0  0  0  0
  1  2  1  0  0  0  0
  1  3  1  0  0  0  0
  1  4  1  0  0  0  0
  1 14  1  0  0  0  0
  4  5  1  0  0  0  0
  4  6  1  0  0  0  0
  6  7  1  0  0  0  0
  6 92  2  0  0  0  0
  7  8  1  0  0  0  0
  7  9  1  0  0  0  0
  7 10  1  0  0  0  0
 10 11  1  0  0  0  0
 10 12  1  0  0  0  0
 10 13  1  0  0  0  0
 14 15  1  0  0  0  0
 14 16  1  0  0  0  0
 14 17  1  0  0  0  0
 17 18  1  0  0  0  0
 17 19  1  0  0  0  0
 17 20  1  0  0  0  0
 20 21  1  0  0  0  0
 20 22  1  0  0  0  0
 20 23  1  0  0  0  0
 23 24  1  0  0  0  0
 23 25  1  0  0  0  0
 25 26  2  0  0  0  0
 25 27  1  0  0  0  0
 27 28  1  0  0  0  0
 27 29  1  0  0  0  0
 29 30  1  0  0  0  0
 29 33  2  0  0  0  0
 30 31  1  0  0  0  0
 30 32  1  0  0  0  0
 33 34  1  0  0  0  0
 34 35  1  0  0  0  0
 34 36  1  0  0  0  0
 34 37  1  0  0  0  0
 37 38  1  0  0  0  0
 37 39  1  0  0  0  0
 37 40  1  0  0  0  0
 40 41  1  0  0  0  0
 40 42  1  0  0  0  0
 40 43  1  0  0  0  0
 43 44  1  0  0  0  0
 43 45  1  0  0  0  0
 43 64  1  0  0  0  0
 45 46  1  0  0  0  0
 45 63  2  0  0  0  0
 46 47  1  0  0  0  0
 46 48  1  0  0  0  0
 48 49  1  0  0  0  0
 48 50  1  0  0  0  0
 48 51  1  0  0  0  0
 51 52  1  0  0  0  0
 51 61  2  0  0  0  0
 52 53  1  0  0  0  0
 52 54  2  0  0  0  0
 54 55  1  0  0  0  0
 54 56  1  0  0  0  0
 56 57  1  0  0  0  0
 56 59  2  0  0  0  0
 57 58  1  0  0  0  0
 59 60  1  0  0  0  0
 59 61  1  0  0  0  0
 61 62  1  0  0  0  0
 64 65  1  0  0  0  0
 64 66  1  0  0  0  0
 66 67  2  0  0  0  0
 66 68  1  0  0  0  0
 68 69  1  0  0  0  0
 68 70  1  0  0  0  0
 68 81  1  0  0  0  0
 70 71  2  0  0  0  0
 70 75  1  0  0  0  0
 71 72  1  0  0  0  0
 71 73  1  0  0  0  0
 73 74  1  0  0  0  0
 73 79  2  0  0  0  0
 75 76  1  0  0  0  0
 75 77  2  0  0  0  0
 77 78  1  0  0  0  0
 77 79  1  0  0  0  0
 79 80  1  0  0  0  0
 81 82  1  0  0  0  0
 81 90  2  0  0  0  0
 82 83  1  0  0  0  0
 82 84  2  0  0  0  0
 84 85  1  0  0  0  0
 84 86  1  0  0  0  0
 86 87  1  0  0  0  0
 86 88  2  0  0  0  0
 88 89  1  0  0  0  0
 88 90  1  0  0  0  0
 90 91  1  0  0  0  0
M  END
> <ConfScore>
-0.644316 

> <SampleByParts>
10 7 6 92 4 1 14 17 20 23 25 26 27 29 30 33

$$$$
NPY1_MK299_12302016.pdb.B
  MOE2014           3D

 92 94  0  0  0  0  0  0  0  0999 V2000
  -54.2365  -16.7335   76.2935 C   0  0  0  1  0  0  0  0  0  0  0  0
  -55.1258  -17.2062   75.8669 H   0  0  0  1  0  0  0  0  0  0  0  0
  -54.4260  -16.5500   77.3563 H   0  0  0  1  0  0  0  0  0  0  0  0
  -54.0244  -15.4374   75.6681 N   0  0  0  1  0  0  0  0  0  0  0  0
  -53.1919  -14.9219   75.9279 H   0  0  0  1  0  0  0  0  0  0  0  0
  -54.8047  -14.7855   74.7519 C   0  0  0  1  0  0  0  0  0  0  0  0
  -54.3329  -13.4250   74.2762 C   0  0  0  1  0  0  0  0  0  0  0  0
  -53.4142  -13.1670   74.8139 H   0  0  0  1  0  0  0  0  0  0  0  0
  -55.0966  -12.6783   74.5152 H   0  0  0  1  0  0  0  0  0  0  0  0
  -54.0602  -13.3957   72.7829 C   0  0  0  1  0  0  0  0  0  0  0  0
  -53.7354  -12.3977   72.4729 H   0  0  0  1  0  0  0  0  0  0  0  0
  -54.9602  -13.6540   72.2178 H   0  0  0  1  0  0  0  0  0  0  0  0
  -53.2767  -14.1106   72.5113 H   0  0  0  1  0  0  0  0  0  0  0  0
  -53.0106  -17.6213   76.1191 C   0  0  0  1  0  0  0  0  0  0  0  0
  -52.1432  -17.1062   76.5457 H   0  0  0  1  0  0  0  0  0  0  0  0
  -53.1344  -18.5430   76.7018 H   0  0  0  1  0  0  0  0  0  0  0  0
  -52.7478  -17.9763   74.6485 C   0  0  0  1  0  0  0  0  0  0  0  0
  -53.6156  -18.4890   74.2337 H   0  0  0  1  0  0  0  0  0  0  0  0
  -52.5657  -17.0591   74.0885 H   0  0  0  1  0  0  0  0  0  0  0  0
  -51.5029  -18.9032   74.5237 C   0  0  0  1  0  0  0  0  0  0  0  0
  -51.6461  -19.7910   75.1396 H   0  0  0  1  0  0  0  0  0  0  0  0
  -50.6146  -18.3679   74.8590 H   0  0  0  1  0  0  0  0  0  0  0  0
  -51.3372  -19.2991   73.1251 N   0  0  0  1  0  0  0  0  0  0  0  0
  -52.0510  -18.9874   72.4822 H   0  0  0  1  0  0  0  0  0  0  0  0
  -50.2934  -20.0658   72.5771 C   0  0  0  1  0  0  0  0  0  0  0  0
  -49.4082  -20.5320   73.3138 O   0  0  0  1  0  0  0  0  0  0  0  0
  -50.4600  -20.2550   71.1740 N   0  0  0  1  0  0  0  0  0  0  0  0
  -51.2943  -19.8326   70.7923 H   0  0  0  1  0  0  0  0  0  0  0  0
  -49.6900  -20.9060   70.2590 C   0  0  0  1  0  0  0  0  0  0  0  0
  -50.2570  -20.8250   69.0000 N   0  0  0  1  0  0  0  0  0  0  0  0
  -49.8842  -21.3783   68.2417 H   0  0  0  1  0  0  0  0  0  0  0  0
  -51.0438  -20.2125   68.8389 H   0  0  0  1  0  0  0  0  0  0  0  0
  -48.6290  -21.7900   70.2920 N   0  0  0  1  0  0  0  0  0  0  0  0
  -47.7070  -22.1200   71.3230 C   0  0  0  1  0  0  0  0  0  0  0  0
  -48.1435  -21.9395   72.3054 H   0  0  0  1  0  0  0  0  0  0  0  0
  -47.3992  -23.1630   71.2482 H   0  0  0  1  0  0  0  0  0  0  0  0
  -46.5220  -21.1840   71.0740 C   0  0  0  1  0  0  0  0  0  0  0  0
  -46.9258  -20.2178   70.7716 H   0  0  0  1  0  0  0  0  0  0  0  0
  -45.9869  -21.0750   72.0173 H   0  0  0  1  0  0  0  0  0  0  0  0
  -45.4860  -21.6160   69.9960 C   0  0  0  1  0  0  0  0  0  0  0  0
  -45.9831  -21.6765   69.0278 H   0  0  0  1  0  0  0  0  0  0  0  0
  -45.0840  -22.5942   70.2597 H   0  0  0  1  0  0  0  0  0  0  0  0
  -44.2930  -20.5720   69.9030 C   0  0  0  1  0  0  0  0  0  0  0  0
  -43.4175  -20.9189   69.3542 H   0  0  0  1  0  0  0  0  0  0  0  0
  -43.9430  -20.2610   71.3950 C   0  0  0  1  0  0  0  0  0  0  0  0
  -43.2680  -21.2970   72.0370 N   0  0  0  1  0  0  0  0  0  0  0  0
  -42.9631  -22.0791   71.4753 H   0  0  0  1  0  0  0  0  0  0  0  0
  -42.9760  -21.3290   73.4430 C   0  0  0  1  0  0  0  0  0  0  0  0
  -42.1220  -21.9707   73.6596 H   0  0  0  1  0  0  0  0  0  0  0  0
  -42.7882  -20.3295   73.8353 H   0  0  0  1  0  0  0  0  0  0  0  0
  -44.2750  -21.9160   74.0000 C   0  0  0  1  0  0  0  0  0  0  0  0
  -44.6710  -23.2570   73.6750 C   0  0  0  1  0  0  0  0  0  0  0  0
  -44.0095  -23.8778   73.0890 H   0  0  0  1  0  0  0  0  0  0  0  0
  -45.9140  -23.7810   74.1090 C   0  0  0  1  0  0  0  0  0  0  0  0
  -46.2001  -24.7938   73.8667 H   0  0  0  1  0  0  0  0  0  0  0  0
  -46.7720  -22.9500   74.8660 C   0  0  0  1  0  0  0  0  0  0  0  0
  -48.0010  -23.3600   75.3380 O   0  0  0  1  0  0  0  0  0  0  0  0
  -48.4837  -22.6994   75.8401 H   0  0  0  1  0  0  0  0  0  0  0  0
  -46.3920  -21.6040   75.1900 C   0  0  0  1  0  0  0  0  0  0  0  0
  -47.0635  -20.9775   75.7583 H   0  0  0  1  0  0  0  0  0  0  0  0
  -45.1510  -21.0990   74.7710 C   0  0  0  1  0  0  0  0  0  0  0  0
  -44.8607  -20.0922   75.0329 H   0  0  0  1  0  0  0  0  0  0  0  0
  -44.2390  -19.1780   71.9410 O   0  0  0  1  0  0  0  0  0  0  0  0
  -44.8310  -19.3810   69.2410 N   0  0  0  1  0  0  0  0  0  0  0  0
  -45.3418  -18.7187   69.8071 H   0  0  0  1  0  0  0  0  0  0  0  0
  -44.6870  -19.1000   67.8890 C   0  0  0  1  0  0  0  0  0  0  0  0
  -44.0790  -19.8190   67.1090 O   0  0  0  1  0  0  0  0  0  0  0  0
  -45.4070  -17.8340   67.4640 C   0  0  0  1  0  0  0  0  0  0  0  0
  -45.5191  -17.1446   68.3008 H   0  0  0  1  0  0  0  0  0  0  0  0
  -46.7920  -18.2790   66.9880 C   0  0  0  1  0  0  0  0  0  0  0  0
  -47.9390  -17.9030   67.6910 C   0  0  0  1  0  0  0  0  0  0  0  0
  -47.8686  -17.2440   68.5437 H   0  0  0  1  0  0  0  0  0  0  0  0
  -49.1880  -18.3970   67.2700 C   0  0  0  1  0  0  0  0  0  0  0  0
  -50.0790  -18.1102   67.8088 H   0  0  0  1  0  0  0  0  0  0  0  0
  -46.9160  -19.1540   65.8530 C   0  0  0  1  0  0  0  0  0  0  0  0
  -46.0285  -19.4383   65.3071 H   0  0  0  1  0  0  0  0  0  0  0  0
  -48.1600  -19.6460   65.4390 C   0  0  0  1  0  0  0  0  0  0  0  0
  -48.2363  -20.3059   64.5875 H   0  0  0  1  0  0  0  0  0  0  0  0
  -49.3010  -19.2650   66.1510 C   0  0  0  1  0  0  0  0  0  0  0  0
  -50.2712  -19.6315   65.8496 H   0  0  0  1  0  0  0  0  0  0  0  0
  -44.6090  -16.9290   66.5050 C   0  0  0  1  0  0  0  0  0  0  0  0
  -43.2450  -16.6910   66.7460 C   0  0  0  1  0  0  0  0  0  0  0  0
  -42.7509  -17.1929   67.5647 H   0  0  0  1  0  0  0  0  0  0  0  0
  -42.5140  -15.8010   65.9270 C   0  0  0  1  0  0  0  0  0  0  0  0
  -41.4684  -15.6253   66.1325 H   0  0  0  1  0  0  0  0  0  0  0  0
  -43.1280  -15.1420   64.8500 C   0  0  0  1  0  0  0  0  0  0  0  0
  -42.5627  -14.4605   64.2316 H   0  0  0  1  0  0  0  0  0  0  0  0
  -44.4780  -15.3790   64.5890 C   0  0  0  1  0  0  0  0  0  0  0  0
  -44.9601  -14.8861   63.7577 H   0  0  0  1  0  0  0  0  0  0  0  0
  -45.2150  -16.2600   65.4070 C   0  0  0  1  0  0  0  0  0  0  0  0
  -46.2603  -16.4297   65.1951 H   0  0  0  1  0  0  0  0  0  0  0  0
  -55.8342  -15.3249   74.3485 O   0  0  0  1  0  0  0  0  0  0  0  0
  1  2  1  0  0  0  0
  1  3  1  0  0  0  0
  1  4  1  0  0  0  0
  1 14  1  0  0  0  0
  4  5  1  0  0  0  0
  4  6  1  0  0  0  0
  6  7  1  0  0  0  0
  6 92  2  0  0  0  0
  7  8  1  0  0  0  0
  7  9  1  0  0  0  0
  7 10  1  0  0  0  0
 10 11  1  0  0  0  0
 10 12  1  0  0  0  0
 10 13  1  0  0  0  0
 14 15  1  0  0  0  0
 14 16  1  0  0  0  0
 14 17  1  0  0  0  0
 17 18  1  0  0  0  0
 17 19  1  0  0  0  0
 17 20  1  0  0  0  0
 20 21  1  0  0  0  0
 20 22  1  0  0  0  0
 20 23  1  0  0  0  0
 23 24  1  0  0  0  0
 23 25  1  0  0  0  0
 25 26  2  0  0  0  0
 25 27  1  0  0  0  0
 27 28  1  0  0  0  0
 27 29  1  0  0  0  0
 29 30  1  0  0  0  0
 29 33  2  0  0  0  0
 30 31  1  0  0  0  0
 30 32  1  0  0  0  0
 33 34  1  0  0  0  0
 34 35  1  0  0  0  0
 34 36  1  0  0  0  0
 34 37  1  0  0  0  0
 37 38  1  0  0  0  0
 37 39  1  0  0  0  0
 37 40  1  0  0  0  0
 40 41  1  0  0  0  0
 40 42  1  0  0  0  0
 40 43  1  0  0  0  0
 43 44  1  0  0  0  0
 43 45  1  0  0  0  0
 43 64  1  0  0  0  0
 45 46  1  0  0  0  0
 45 63  2  0  0  0  0
 46 47  1  0  0  0  0
 46 48  1  0  0  0  0
 48 49  1  0  0  0  0
 48 50  1  0  0  0  0
 48 51  1  0  0  0  0
 51 52  1  0  0  0  0
 51 61  2  0  0  0  0
 52 53  1  0  0  0  0
 52 54  2  0  0  0  0
 54 55  1  0  0  0  0
 54 56  1  0  0  0  0
 56 57  1  0  0  0  0
 56 59  2  0  0  0  0
 57 58  1  0  0  0  0
 59 60  1  0  0  0  0
 59 61  1  0  0  0  0
 61 62  1  0  0  0  0
 64 65  1  0  0  0  0
 64 66  1  0  0  0  0
 66 67  2  0  0  0  0
 66 68  1  0  0  0  0
 68 69  1  0  0  0  0
 68 70  1  0  0  0  0
 68 81  1  0  0  0  0
 70 71  2  0  0  0  0
 70 75  1  0  0  0  0
 71 72  1  0  0  0  0
 71 73  1  0  0  0  0
 73 74  1  0  0  0  0
 73 79  2  0  0  0  0
 75 76  1  0  0  0  0
 75 77  2  0  0  0  0
 77 78  1  0  0  0  0
 77 79  1  0  0  0  0
 79 80  1  0  0  0  0
 81 82  1  0  0  0  0
 81 90  2  0  0  0  0
 82 83  1  0  0  0  0
 82 84  2  0  0  0  0
 84 85  1  0  0  0  0
 84 86  1  0  0  0  0
 86 87  1  0  0  0  0
 86 88  2  0  0  0  0
 88 89  1  0  0  0  0
 88 90  1  0  0  0  0
 90 91  1  0  0  0  0
M  END
> <ConfScore>
-0.644147 

> <SampleByParts>
10 7 6 92 4 1 14 17 20 23 25 26 27 29 30 33

$$$$
NPY1_MK299_12302016.pdb.B
  MOE2014           3D

 92 94  0  0  0  0  0  0  0  0999 V2000
  -54.3147  -16.8611   76.3240 C   0  0  0  1  0  0  0  0  0  0  0  0
  -54.2582  -15.9447   75.7294 H   0  0  0  1  0  0  0  0  0  0  0  0
  -55.2022  -17.4181   76.0060 H   0  0  0  1  0  0  0  0  0  0  0  0
  -54.5030  -16.5230   77.7262 N   0  0  0  1  0  0  0  0  0  0  0  0
  -53.8276  -16.8828   78.3901 H   0  0  0  1  0  0  0  0  0  0  0  0
  -55.4869  -15.7682   78.3053 C   0  0  0  1  0  0  0  0  0  0  0  0
  -55.4340  -15.5890   79.8103 C   0  0  0  1  0  0  0  0  0  0  0  0
  -54.4769  -15.1254   80.0726 H   0  0  0  1  0  0  0  0  0  0  0  0
  -55.4867  -16.5718   80.2892 H   0  0  0  1  0  0  0  0  0  0  0  0
  -56.5661  -14.7217   80.3309 C   0  0  0  1  0  0  0  0  0  0  0  0
  -56.5046  -14.6251   81.4192 H   0  0  0  1  0  0  0  0  0  0  0  0
  -57.5373  -15.1575   80.0799 H   0  0  0  1  0  0  0  0  0  0  0  0
  -56.5260  -13.7181   79.8952 H   0  0  0  1  0  0  0  0  0  0  0  0
  -53.0623  -17.7087   76.1391 C   0  0  0  1  0  0  0  0  0  0  0  0
  -52.2037  -17.1528   76.5310 H   0  0  0  1  0  0  0  0  0  0  0  0
  -53.1381  -18.6197   76.7462 H   0  0  0  1  0  0  0  0  0  0  0  0
  -52.8233  -18.0900   74.6710 C   0  0  0  1  0  0  0  0  0  0  0  0
  -53.6744  -18.6584   74.2960 H   0  0  0  1  0  0  0  0  0  0  0  0
  -52.7062  -17.1802   74.0820 H   0  0  0  1  0  0  0  0  0  0  0  0
  -51.5353  -18.9537   74.5329 C   0  0  0  1  0  0  0  0  0  0  0  0
  -51.6428  -19.8655   75.1205 H   0  0  0  1  0  0  0  0  0  0  0  0
  -50.6764  -18.3881   74.8940 H   0  0  0  1  0  0  0  0  0  0  0  0
  -51.3372  -19.2991   73.1251 N   0  0  0  1  0  0  0  0  0  0  0  0
  -52.0259  -18.9481   72.4751 H   0  0  0  1  0  0  0  0  0  0  0  0
  -50.2934  -20.0658   72.5771 C   0  0  0  1  0  0  0  0  0  0  0  0
  -49.4082  -20.5320   73.3138 O   0  0  0  1  0  0  0  0  0  0  0  0
  -50.4600  -20.2550   71.1740 N   0  0  0  1  0  0  0  0  0  0  0  0
  -51.2943  -19.8326   70.7923 H   0  0  0  1  0  0  0  0  0  0  0  0
  -49.6900  -20.9060   70.2590 C   0  0  0  1  0  0  0  0  0  0  0  0
  -50.2570  -20.8250   69.0000 N   0  0  0  1  0  0  0  0  0  0  0  0
  -49.8842  -21.3783   68.2417 H   0  0  0  1  0  0  0  0  0  0  0  0
  -51.0438  -20.2125   68.8389 H   0  0  0  1  0  0  0  0  0  0  0  0
  -48.6290  -21.7900   70.2920 N   0  0  0  1  0  0  0  0  0  0  0  0
  -47.7070  -22.1200   71.3230 C   0  0  0  1  0  0  0  0  0  0  0  0
  -48.1435  -21.9395   72.3054 H   0  0  0  1  0  0  0  0  0  0  0  0
  -47.3992  -23.1630   71.2482 H   0  0  0  1  0  0  0  0  0  0  0  0
  -46.5220  -21.1840   71.0740 C   0  0  0  1  0  0  0  0  0  0  0  0
  -46.9258  -20.2178   70.7716 H   0  0  0  1  0  0  0  0  0  0  0  0
  -45.9869  -21.0750   72.0173 H   0  0  0  1  0  0  0  0  0  0  0  0
  -45.4860  -21.6160   69.9960 C   0  0  0  1  0  0  0  0  0  0  0  0
  -45.9831  -21.6765   69.0278 H   0  0  0  1  0  0  0  0  0  0  0  0
  -45.0840  -22.5942   70.2597 H   0  0  0  1  0  0  0  0  0  0  0  0
  -44.2930  -20.5720   69.9030 C   0  0  0  1  0  0  0  0  0  0  0  0
  -43.4175  -20.9189   69.3542 H   0  0  0  1  0  0  0  0  0  0  0  0
  -43.9430  -20.2610   71.3950 C   0  0  0  1  0  0  0  0  0  0  0  0
  -43.2680  -21.2970   72.0370 N   0  0  0  1  0  0  0  0  0  0  0  0
  -42.9631  -22.0791   71.4753 H   0  0  0  1  0  0  0  0  0  0  0  0
  -42.9760  -21.3290   73.4430 C   0  0  0  1  0  0  0  0  0  0  0  0
  -42.1220  -21.9707   73.6596 H   0  0  0  1  0  0  0  0  0  0  0  0
  -42.7882  -20.3295   73.8353 H   0  0  0  1  0  0  0  0  0  0  0  0
  -44.2750  -21.9160   74.0000 C   0  0  0  1  0  0  0  0  0  0  0  0
  -44.6710  -23.2570   73.6750 C   0  0  0  1  0  0  0  0  0  0  0  0
  -44.0095  -23.8778   73.0890 H   0  0  0  1  0  0  0  0  0  0  0  0
  -45.9140  -23.7810   74.1090 C   0  0  0  1  0  0  0  0  0  0  0  0
  -46.2001  -24.7938   73.8667 H   0  0  0  1  0  0  0  0  0  0  0  0
  -46.7720  -22.9500   74.8660 C   0  0  0  1  0  0  0  0  0  0  0  0
  -48.0010  -23.3600   75.3380 O   0  0  0  1  0  0  0  0  0  0  0  0
  -48.4837  -22.6994   75.8401 H   0  0  0  1  0  0  0  0  0  0  0  0
  -46.3920  -21.6040   75.1900 C   0  0  0  1  0  0  0  0  0  0  0  0
  -47.0635  -20.9775   75.7583 H   0  0  0  1  0  0  0  0  0  0  0  0
  -45.1510  -21.0990   74.7710 C   0  0  0  1  0  0  0  0  0  0  0  0
  -44.8607  -20.0922   75.0329 H   0  0  0  1  0  0  0  0  0  0  0  0
  -44.2390  -19.1780   71.9410 O   0  0  0  1  0  0  0  0  0  0  0  0
  -44.8310  -19.3810   69.2410 N   0  0  0  1  0  0  0  0  0  0  0  0
  -45.3418  -18.7187   69.8071 H   0  0  0  1  0  0  0  0  0  0  0  0
  -44.6870  -19.1000   67.8890 C   0  0  0  1  0  0  0  0  0  0  0  0
  -44.0790  -19.8190   67.1090 O   0  0  0  1  0  0  0  0  0  0  0  0
  -45.4070  -17.8340   67.4640 C   0  0  0  1  0  0  0  0  0  0  0  0
  -45.5191  -17.1446   68.3008 H   0  0  0  1  0  0  0  0  0  0  0  0
  -46.7920  -18.2790   66.9880 C   0  0  0  1  0  0  0  0  0  0  0  0
  -47.9390  -17.9030   67.6910 C   0  0  0  1  0  0  0  0  0  0  0  0
  -47.8686  -17.2440   68.5437 H   0  0  0  1  0  0  0  0  0  0  0  0
  -49.1880  -18.3970   67.2700 C   0  0  0  1  0  0  0  0  0  0  0  0
  -50.0790  -18.1102   67.8088 H   0  0  0  1  0  0  0  0  0  0  0  0
  -46.9160  -19.1540   65.8530 C   0  0  0  1  0  0  0  0  0  0  0  0
  -46.0285  -19.4383   65.3071 H   0  0  0  1  0  0  0  0  0  0  0  0
  -48.1600  -19.6460   65.4390 C   0  0  0  1  0  0  0  0  0  0  0  0
  -48.2363  -20.3059   64.5875 H   0  0  0  1  0  0  0  0  0  0  0  0
  -49.3010  -19.2650   66.1510 C   0  0  0  1  0  0  0  0  0  0  0  0
  -50.2712  -19.6315   65.8496 H   0  0  0  1  0  0  0  0  0  0  0  0
  -44.6090  -16.9290   66.5050 C   0  0  0  1  0  0  0  0  0  0  0  0
  -43.2450  -16.6910   66.7460 C   0  0  0  1  0  0  0  0  0  0  0  0
  -42.7509  -17.1929   67.5647 H   0  0  0  1  0  0  0  0  0  0  0  0
  -42.5140  -15.8010   65.9270 C   0  0  0  1  0  0  0  0  0  0  0  0
  -41.4684  -15.6253   66.1325 H   0  0  0  1  0  0  0  0  0  0  0  0
  -43.1280  -15.1420   64.8500 C   0  0  0  1  0  0  0  0  0  0  0  0
  -42.5627  -14.4605   64.2316 H   0  0  0  1  0  0  0  0  0  0  0  0
  -44.4780  -15.3790   64.5890 C   0  0  0  1  0  0  0  0  0  0  0  0
  -44.9601  -14.8861   63.7577 H   0  0  0  1  0  0  0  0  0  0  0  0
  -45.2150  -16.2600   65.4070 C   0  0  0  1  0  0  0  0  0  0  0  0
  -46.2603  -16.4297   65.1951 H   0  0  0  1  0  0  0  0  0  0  0  0
  -56.3538  -15.2637   77.5929 O   0  0  0  1  0  0  0  0  0  0  0  0
  1  2  1  0  0  0  0
  1  3  1  0  0  0  0
  1  4  1  0  0  0  0
  1 14  1  0  0  0  0
  4  5  1  0  0  0  0
  4  6  1  0  0  0  0
  6  7  1  0  0  0  0
  6 92  2  0  0  0  0
  7  8  1  0  0  0  0
  7  9  1  0  0  0  0
  7 10  1  0  0  0  0
 10 11  1  0  0  0  0
 10 12  1  0  0  0  0
 10 13  1  0  0  0  0
 14 15  1  0  0  0  0
 14 16  1  0  0  0  0
 14 17  1  0  0  0  0
 17 18  1  0  0  0  0
 17 19  1  0  0  0  0
 17 20  1  0  0  0  0
 20 21  1  0  0  0  0
 20 22  1  0  0  0  0
 20 23  1  0  0  0  0
 23 24  1  0  0  0  0
 23 25  1  0  0  0  0
 25 26  2  0  0  0  0
 25 27  1  0  0  0  0
 27 28  1  0  0  0  0
 27 29  1  0  0  0  0
 29 30  1  0  0  0  0
 29 33  2  0  0  0  0
 30 31  1  0  0  0  0
 30 32  1  0  0  0  0
 33 34  1  0  0  0  0
 34 35  1  0  0  0  0
 34 36  1  0  0  0  0
 34 37  1  0  0  0  0
 37 38  1  0  0  0  0
 37 39  1  0  0  0  0
 37 40  1  0  0  0  0
 40 41  1  0  0  0  0
 40 42  1  0  0  0  0
 40 43  1  0  0  0  0
 43 44  1  0  0  0  0
 43 45  1  0  0  0  0
 43 64  1  0  0  0  0
 45 46  1  0  0  0  0
 45 63  2  0  0  0  0
 46 47  1  0  0  0  0
 46 48  1  0  0  0  0
 48 49  1  0  0  0  0
 48 50  1  0  0  0  0
 48 51  1  0  0  0  0
 51 52  1  0  0  0  0
 51 61  2  0  0  0  0
 52 53  1  0  0  0  0
 52 54  2  0  0  0  0
 54 55  1  0  0  0  0
 54 56  1  0  0  0  0
 56 57  1  0  0  0  0
 56 59  2  0  0  0  0
 57 58  1  0  0  0  0
 59 60  1  0  0  0  0
 59 61  1  0  0  0  0
 61 62  1  0  0  0  0
 64 65  1  0  0  0  0
 64 66  1  0  0  0  0
 66 67  2  0  0  0  0
 66 68  1  0  0  0  0
 68 69  1  0  0  0  0
 68 70  1  0  0  0  0
 68 81  1  0  0  0  0
 70 71  2  0  0  0  0
 70 75  1  0  0  0  0
 71 72  1  0  0  0  0
 71 73  1  0  0  0  0
 73 74  1  0  0  0  0
 73 79  2  0  0  0  0
 75 76  1  0  0  0  0
 75 77  2  0  0  0  0
 77 78  1  0  0  0  0
 77 79  1  0  0  0  0
 79 80  1  0  0  0  0
 81 82  1  0  0  0  0
 81 90  2  0  0  0  0
 82 83  1  0  0  0  0
 82 84  2  0  0  0  0
 84 85  1  0  0  0  0
 84 86  1  0  0  0  0
 86 87  1  0  0  0  0
 86 88  2  0  0  0  0
 88 89  1  0  0  0  0
 88 90  1  0  0  0  0
 90 91  1  0  0  0  0
M  END
> <ConfScore>
-0.643253 

> <SampleByParts>
10 7 6 92 4 1 14 17 20 23 25 26 27 29 30 33

$$$$
NPY1_MK299_12302016.pdb.B
  MOE2014           3D

 92 94  0  0  0  0  0  0  0  0999 V2000
  -54.3943  -17.0062   76.3573 C   0  0  0  1  0  0  0  0  0  0  0  0
  -55.2567  -17.5909   76.0247 H   0  0  0  1  0  0  0  0  0  0  0  0
  -54.5349  -16.7660   77.4163 H   0  0  0  1  0  0  0  0  0  0  0  0
  -54.3520  -15.7440   75.6355 N   0  0  0  1  0  0  0  0  0  0  0  0
  -53.4473  -15.3056   75.5100 H   0  0  0  1  0  0  0  0  0  0  0  0
  -55.3827  -15.0336   75.0821 C   0  0  0  1  0  0  0  0  0  0  0  0
  -55.0410  -13.7183   74.4089 C   0  0  0  1  0  0  0  0  0  0  0  0
  -55.3498  -13.7733   73.3595 H   0  0  0  1  0  0  0  0  0  0  0  0
  -53.9572  -13.5696   74.4448 H   0  0  0  1  0  0  0  0  0  0  0  0
  -55.7266  -12.5347   75.0678 C   0  0  0  1  0  0  0  0  0  0  0  0
  -55.4475  -11.6031   74.5660 H   0  0  0  1  0  0  0  0  0  0  0  0
  -55.4407  -12.4559   76.1205 H   0  0  0  1  0  0  0  0  0  0  0  0
  -56.8159  -12.6351   75.0226 H   0  0  0  1  0  0  0  0  0  0  0  0
  -53.0992  -17.7832   76.1572 C   0  0  0  1  0  0  0  0  0  0  0  0
  -52.2660  -17.1727   76.5218 H   0  0  0  1  0  0  0  0  0  0  0  0
  -53.1093  -18.6873   76.7794 H   0  0  0  1  0  0  0  0  0  0  0  0
  -52.8698  -18.1737   74.6900 C   0  0  0  1  0  0  0  0  0  0  0  0
  -53.6943  -18.7961   74.3424 H   0  0  0  1  0  0  0  0  0  0  0  0
  -52.8180  -17.2683   74.0853 H   0  0  0  1  0  0  0  0  0  0  0  0
  -51.5372  -18.9640   74.5362 C   0  0  0  1  0  0  0  0  0  0  0  0
  -51.5793  -19.8709   75.1395 H   0  0  0  1  0  0  0  0  0  0  0  0
  -50.7050  -18.3442   74.8699 H   0  0  0  1  0  0  0  0  0  0  0  0
  -51.3493  -19.3199   73.1296 N   0  0  0  1  0  0  0  0  0  0  0  0
  -52.0709  -19.0197   72.4900 H   0  0  0  1  0  0  0  0  0  0  0  0
  -50.2748  -20.0341   72.5701 C   0  0  0  1  0  0  0  0  0  0  0  0
  -49.3487  -20.4367   73.2938 O   0  0  0  1  0  0  0  0  0  0  0  0
  -50.4600  -20.2550   71.1740 N   0  0  0  1  0  0  0  0  0  0  0  0
  -51.3102  -19.8599   70.7983 H   0  0  0  1  0  0  0  0  0  0  0  0
  -49.6900  -20.9060   70.2590 C   0  0  0  1  0  0  0  0  0  0  0  0
  -50.2570  -20.8250   69.0000 N   0  0  0  1  0  0  0  0  0  0  0  0
  -49.8842  -21.3783   68.2417 H   0  0  0  1  0  0  0  0  0  0  0  0
  -51.0438  -20.2125   68.8389 H   0  0  0  1  0  0  0  0  0  0  0  0
  -48.6290  -21.7900   70.2920 N   0  0  0  1  0  0  0  0  0  0  0  0
  -47.7070  -22.1200   71.3230 C   0  0  0  1  0  0  0  0  0  0  0  0
  -48.1435  -21.9395   72.3054 H   0  0  0  1  0  0  0  0  0  0  0  0
  -47.3992  -23.1630   71.2482 H   0  0  0  1  0  0  0  0  0  0  0  0
  -46.5220  -21.1840   71.0740 C   0  0  0  1  0  0  0  0  0  0  0  0
  -46.9258  -20.2178   70.7716 H   0  0  0  1  0  0  0  0  0  0  0  0
  -45.9869  -21.0750   72.0173 H   0  0  0  1  0  0  0  0  0  0  0  0
  -45.4860  -21.6160   69.9960 C   0  0  0  1  0  0  0  0  0  0  0  0
  -45.9831  -21.6765   69.0278 H   0  0  0  1  0  0  0  0  0  0  0  0
  -45.0840  -22.5942   70.2597 H   0  0  0  1  0  0  0  0  0  0  0  0
  -44.2930  -20.5720   69.9030 C   0  0  0  1  0  0  0  0  0  0  0  0
  -43.4175  -20.9189   69.3542 H   0  0  0  1  0  0  0  0  0  0  0  0
  -43.9430  -20.2610   71.3950 C   0  0  0  1  0  0  0  0  0  0  0  0
  -43.2680  -21.2970   72.0370 N   0  0  0  1  0  0  0  0  0  0  0  0
  -42.9631  -22.0791   71.4753 H   0  0  0  1  0  0  0  0  0  0  0  0
  -42.9760  -21.3290   73.4430 C   0  0  0  1  0  0  0  0  0  0  0  0
  -42.1220  -21.9707   73.6596 H   0  0  0  1  0  0  0  0  0  0  0  0
  -42.7882  -20.3295   73.8353 H   0  0  0  1  0  0  0  0  0  0  0  0
  -44.2750  -21.9160   74.0000 C   0  0  0  1  0  0  0  0  0  0  0  0
  -44.6710  -23.2570   73.6750 C   0  0  0  1  0  0  0  0  0  0  0  0
  -44.0095  -23.8778   73.0890 H   0  0  0  1  0  0  0  0  0  0  0  0
  -45.9140  -23.7810   74.1090 C   0  0  0  1  0  0  0  0  0  0  0  0
  -46.2001  -24.7938   73.8667 H   0  0  0  1  0  0  0  0  0  0  0  0
  -46.7720  -22.9500   74.8660 C   0  0  0  1  0  0  0  0  0  0  0  0
  -48.0010  -23.3600   75.3380 O   0  0  0  1  0  0  0  0  0  0  0  0
  -48.4837  -22.6994   75.8401 H   0  0  0  1  0  0  0  0  0  0  0  0
  -46.3920  -21.6040   75.1900 C   0  0  0  1  0  0  0  0  0  0  0  0
  -47.0635  -20.9775   75.7583 H   0  0  0  1  0  0  0  0  0  0  0  0
  -45.1510  -21.0990   74.7710 C   0  0  0  1  0  0  0  0  0  0  0  0
  -44.8607  -20.0922   75.0329 H   0  0  0  1  0  0  0  0  0  0  0  0
  -44.2390  -19.1780   71.9410 O   0  0  0  1  0  0  0  0  0  0  0  0
  -44.8310  -19.3810   69.2410 N   0  0  0  1  0  0  0  0  0  0  0  0
  -45.3418  -18.7187   69.8071 H   0  0  0  1  0  0  0  0  0  0  0  0
  -44.6870  -19.1000   67.8890 C   0  0  0  1  0  0  0  0  0  0  0  0
  -44.0790  -19.8190   67.1090 O   0  0  0  1  0  0  0  0  0  0  0  0
  -45.4070  -17.8340   67.4640 C   0  0  0  1  0  0  0  0  0  0  0  0
  -45.5191  -17.1446   68.3008 H   0  0  0  1  0  0  0  0  0  0  0  0
  -46.7920  -18.2790   66.9880 C   0  0  0  1  0  0  0  0  0  0  0  0
  -47.9390  -17.9030   67.6910 C   0  0  0  1  0  0  0  0  0  0  0  0
  -47.8686  -17.2440   68.5437 H   0  0  0  1  0  0  0  0  0  0  0  0
  -49.1880  -18.3970   67.2700 C   0  0  0  1  0  0  0  0  0  0  0  0
  -50.0790  -18.1102   67.8088 H   0  0  0  1  0  0  0  0  0  0  0  0
  -46.9160  -19.1540   65.8530 C   0  0  0  1  0  0  0  0  0  0  0  0
  -46.0285  -19.4383   65.3071 H   0  0  0  1  0  0  0  0  0  0  0  0
  -48.1600  -19.6460   65.4390 C   0  0  0  1  0  0  0  0  0  0  0  0
  -48.2363  -20.3059   64.5875 H   0  0  0  1  0  0  0  0  0  0  0  0
  -49.3010  -19.2650   66.1510 C   0  0  0  1  0  0  0  0  0  0  0  0
  -50.2712  -19.6315   65.8496 H   0  0  0  1  0  0  0  0  0  0  0  0
  -44.6090  -16.9290   66.5050 C   0  0  0  1  0  0  0  0  0  0  0  0
  -43.2450  -16.6910   66.7460 C   0  0  0  1  0  0  0  0  0  0  0  0
  -42.7509  -17.1929   67.5647 H   0  0  0  1  0  0  0  0  0  0  0  0
  -42.5140  -15.8010   65.9270 C   0  0  0  1  0  0  0  0  0  0  0  0
  -41.4684  -15.6253   66.1325 H   0  0  0  1  0  0  0  0  0  0  0  0
  -43.1280  -15.1420   64.8500 C   0  0  0  1  0  0  0  0  0  0  0  0
  -42.5627  -14.4605   64.2316 H   0  0  0  1  0  0  0  0  0  0  0  0
  -44.4780  -15.3790   64.5890 C   0  0  0  1  0  0  0  0  0  0  0  0
  -44.9601  -14.8861   63.7577 H   0  0  0  1  0  0  0  0  0  0  0  0
  -45.2150  -16.2600   65.4070 C   0  0  0  1  0  0  0  0  0  0  0  0
  -46.2603  -16.4297   65.1951 H   0  0  0  1  0  0  0  0  0  0  0  0
  -56.5244  -15.4881   75.1411 O   0  0  0  1  0  0  0  0  0  0  0  0
  1  2  1  0  0  0  0
  1  3  1  0  0  0  0
  1  4  1  0  0  0  0
  1 14  1  0  0  0  0
  4  5  1  0  0  0  0
  4  6  1  0  0  0  0
  6  7  1  0  0  0  0
  6 92  2  0  0  0  0
  7  8  1  0  0  0  0
  7  9  1  0  0  0  0
  7 10  1  0  0  0  0
 10 11  1  0  0  0  0
 10 12  1  0  0  0  0
 10 13  1  0  0  0  0
 14 15  1  0  0  0  0
 14 16  1  0  0  0  0
 14 17  1  0  0  0  0
 17 18  1  0  0  0  0
 17 19  1  0  0  0  0
 17 20  1  0  0  0  0
 20 21  1  0  0  0  0
 20 22  1  0  0  0  0
 20 23  1  0  0  0  0
 23 24  1  0  0  0  0
 23 25  1  0  0  0  0
 25 26  2  0  0  0  0
 25 27  1  0  0  0  0
 27 28  1  0  0  0  0
 27 29  1  0  0  0  0
 29 30  1  0  0  0  0
 29 33  2  0  0  0  0
 30 31  1  0  0  0  0
 30 32  1  0  0  0  0
 33 34  1  0  0  0  0
 34 35  1  0  0  0  0
 34 36  1  0  0  0  0
 34 37  1  0  0  0  0
 37 38  1  0  0  0  0
 37 39  1  0  0  0  0
 37 40  1  0  0  0  0
 40 41  1  0  0  0  0
 40 42  1  0  0  0  0
 40 43  1  0  0  0  0
 43 44  1  0  0  0  0
 43 45  1  0  0  0  0
 43 64  1  0  0  0  0
 45 46  1  0  0  0  0
 45 63  2  0  0  0  0
 46 47  1  0  0  0  0
 46 48  1  0  0  0  0
 48 49  1  0  0  0  0
 48 50  1  0  0  0  0
 48 51  1  0  0  0  0
 51 52  1  0  0  0  0
 51 61  2  0  0  0  0
 52 53  1  0  0  0  0
 52 54  2  0  0  0  0
 54 55  1  0  0  0  0
 54 56  1  0  0  0  0
 56 57  1  0  0  0  0
 56 59  2  0  0  0  0
 57 58  1  0  0  0  0
 59 60  1  0  0  0  0
 59 61  1  0  0  0  0
 61 62  1  0  0  0  0
 64 65  1  0  0  0  0
 64 66  1  0  0  0  0
 66 67  2  0  0  0  0
 66 68  1  0  0  0  0
 68 69  1  0  0  0  0
 68 70  1  0  0  0  0
 68 81  1  0  0  0  0
 70 71  2  0  0  0  0
 70 75  1  0  0  0  0
 71 72  1  0  0  0  0
 71 73  1  0  0  0  0
 73 74  1  0  0  0  0
 73 79  2  0  0  0  0
 75 76  1  0  0  0  0
 75 77  2  0  0  0  0
 77 78  1  0  0  0  0
 77 79  1  0  0  0  0
 79 80  1  0  0  0  0
 81 82  1  0  0  0  0
 81 90  2  0  0  0  0
 82 83  1  0  0  0  0
 82 84  2  0  0  0  0
 84 85  1  0  0  0  0
 84 86  1  0  0  0  0
 86 87  1  0  0  0  0
 86 88  2  0  0  0  0
 88 89  1  0  0  0  0
 88 90  1  0  0  0  0
 90 91  1  0  0  0  0
M  END
> <ConfScore>
-0.637951 

> <SampleByParts>
10 7 6 92 4 1 14 17 20 23 25 26 27 29 30 33

$$$$
NPY1_MK299_12302016.pdb.B
  MOE2014           3D

 92 94  0  0  0  0  0  0  0  0999 V2000
  -54.2290  -16.7869   76.3380 C   0  0  0  1  0  0  0  0  0  0  0  0
  -55.1503  -17.0833   75.8285 H   0  0  0  1  0  0  0  0  0  0  0  0
  -54.4576  -16.6482   77.3999 H   0  0  0  1  0  0  0  0  0  0  0  0
  -53.7799  -15.5011   75.8269 N   0  0  0  1  0  0  0  0  0  0  0  0
  -52.7878  -15.3005   75.8686 H   0  0  0  1  0  0  0  0  0  0  0  0
  -54.5182  -14.4863   75.2807 C   0  0  0  1  0  0  0  0  0  0  0  0
  -53.7759  -13.2332   74.8578 C   0  0  0  1  0  0  0  0  0  0  0  0
  -53.7317  -13.2068   73.7637 H   0  0  0  1  0  0  0  0  0  0  0  0
  -52.7533  -13.2756   75.2458 H   0  0  0  1  0  0  0  0  0  0  0  0
  -54.4451  -11.9661   75.3593 C   0  0  0  1  0  0  0  0  0  0  0  0
  -53.8767  -11.0843   75.0479 H   0  0  0  1  0  0  0  0  0  0  0  0
  -54.5080  -11.9652   76.4513 H   0  0  0  1  0  0  0  0  0  0  0  0
  -55.4623  -11.8750   74.9646 H   0  0  0  1  0  0  0  0  0  0  0  0
  -53.1451  -17.8431   76.1625 C   0  0  0  1  0  0  0  0  0  0  0  0
  -52.2445  -17.5098   76.6893 H   0  0  0  1  0  0  0  0  0  0  0  0
  -53.4548  -18.7766   76.6495 H   0  0  0  1  0  0  0  0  0  0  0  0
  -52.8264  -18.1170   74.6857 C   0  0  0  1  0  0  0  0  0  0  0  0
  -53.7195  -18.4827   74.1790 H   0  0  0  1  0  0  0  0  0  0  0  0
  -52.4956  -17.1908   74.2158 H   0  0  0  1  0  0  0  0  0  0  0  0
  -51.6981  -19.1823   74.5581 C   0  0  0  1  0  0  0  0  0  0  0  0
  -52.0197  -20.1122   75.0273 H   0  0  0  1  0  0  0  0  0  0  0  0
  -50.7964  -18.8195   75.0515 H   0  0  0  1  0  0  0  0  0  0  0  0
  -51.4193  -19.4196   73.1416 N   0  0  0  1  0  0  0  0  0  0  0  0
  -51.9891  -18.9115   72.4803 H   0  0  0  1  0  0  0  0  0  0  0  0
  -50.4456  -20.2771   72.5993 C   0  0  0  1  0  0  0  0  0  0  0  0
  -49.7437  -20.9772   73.3482 O   0  0  0  1  0  0  0  0  0  0  0  0
  -50.4600  -20.2550   71.1740 N   0  0  0  1  0  0  0  0  0  0  0  0
  -51.1638  -19.6515   70.7732 H   0  0  0  1  0  0  0  0  0  0  0  0
  -49.6900  -20.9060   70.2590 C   0  0  0  1  0  0  0  0  0  0  0  0
  -50.2570  -20.8250   69.0000 N   0  0  0  1  0  0  0  0  0  0  0  0
  -49.8842  -21.3783   68.2417 H   0  0  0  1  0  0  0  0  0  0  0  0
  -51.0438  -20.2125   68.8389 H   0  0  0  1  0  0  0  0  0  0  0  0
  -48.6290  -21.7900   70.2920 N   0  0  0  1  0  0  0  0  0  0  0  0
  -47.7070  -22.1200   71.3230 C   0  0  0  1  0  0  0  0  0  0  0  0
  -48.1435  -21.9395   72.3054 H   0  0  0  1  0  0  0  0  0  0  0  0
  -47.3992  -23.1630   71.2482 H   0  0  0  1  0  0  0  0  0  0  0  0
  -46.5220  -21.1840   71.0740 C   0  0  0  1  0  0  0  0  0  0  0  0
  -46.9258  -20.2178   70.7716 H   0  0  0  1  0  0  0  0  0  0  0  0
  -45.9869  -21.0750   72.0173 H   0  0  0  1  0  0  0  0  0  0  0  0
  -45.4860  -21.6160   69.9960 C   0  0  0  1  0  0  0  0  0  0  0  0
  -45.9831  -21.6765   69.0278 H   0  0  0  1  0  0  0  0  0  0  0  0
  -45.0840  -22.5942   70.2597 H   0  0  0  1  0  0  0  0  0  0  0  0
  -44.2930  -20.5720   69.9030 C   0  0  0  1  0  0  0  0  0  0  0  0
  -43.4175  -20.9189   69.3542 H   0  0  0  1  0  0  0  0  0  0  0  0
  -43.9430  -20.2610   71.3950 C   0  0  0  1  0  0  0  0  0  0  0  0
  -43.2680  -21.2970   72.0370 N   0  0  0  1  0  0  0  0  0  0  0  0
  -42.9631  -22.0791   71.4753 H   0  0  0  1  0  0  0  0  0  0  0  0
  -42.9760  -21.3290   73.4430 C   0  0  0  1  0  0  0  0  0  0  0  0
  -42.1220  -21.9707   73.6596 H   0  0  0  1  0  0  0  0  0  0  0  0
  -42.7882  -20.3295   73.8353 H   0  0  0  1  0  0  0  0  0  0  0  0
  -44.2750  -21.9160   74.0000 C   0  0  0  1  0  0  0  0  0  0  0  0
  -44.6710  -23.2570   73.6750 C   0  0  0  1  0  0  0  0  0  0  0  0
  -44.0095  -23.8778   73.0890 H   0  0  0  1  0  0  0  0  0  0  0  0
  -45.9140  -23.7810   74.1090 C   0  0  0  1  0  0  0  0  0  0  0  0
  -46.2001  -24.7938   73.8667 H   0  0  0  1  0  0  0  0  0  0  0  0
  -46.7720  -22.9500   74.8660 C   0  0  0  1  0  0  0  0  0  0  0  0
  -48.0010  -23.3600   75.3380 O   0  0  0  1  0  0  0  0  0  0  0  0
  -48.4837  -22.6994   75.8401 H   0  0  0  1  0  0  0  0  0  0  0  0
  -46.3920  -21.6040   75.1900 C   0  0  0  1  0  0  0  0  0  0  0  0
  -47.0635  -20.9775   75.7583 H   0  0  0  1  0  0  0  0  0  0  0  0
  -45.1510  -21.0990   74.7710 C   0  0  0  1  0  0  0  0  0  0  0  0
  -44.8607  -20.0922   75.0329 H   0  0  0  1  0  0  0  0  0  0  0  0
  -44.2390  -19.1780   71.9410 O   0  0  0  1  0  0  0  0  0  0  0  0
  -44.8310  -19.3810   69.2410 N   0  0  0  1  0  0  0  0  0  0  0  0
  -45.3418  -18.7187   69.8071 H   0  0  0  1  0  0  0  0  0  0  0  0
  -44.6870  -19.1000   67.8890 C   0  0  0  1  0  0  0  0  0  0  0  0
  -44.0790  -19.8190   67.1090 O   0  0  0  1  0  0  0  0  0  0  0  0
  -45.4070  -17.8340   67.4640 C   0  0  0  1  0  0  0  0  0  0  0  0
  -45.5191  -17.1446   68.3008 H   0  0  0  1  0  0  0  0  0  0  0  0
  -46.7920  -18.2790   66.9880 C   0  0  0  1  0  0  0  0  0  0  0  0
  -47.9390  -17.9030   67.6910 C   0  0  0  1  0  0  0  0  0  0  0  0
  -47.8686  -17.2440   68.5437 H   0  0  0  1  0  0  0  0  0  0  0  0
  -49.1880  -18.3970   67.2700 C   0  0  0  1  0  0  0  0  0  0  0  0
  -50.0790  -18.1102   67.8088 H   0  0  0  1  0  0  0  0  0  0  0  0
  -46.9160  -19.1540   65.8530 C   0  0  0  1  0  0  0  0  0  0  0  0
  -46.0285  -19.4383   65.3071 H   0  0  0  1  0  0  0  0  0  0  0  0
  -48.1600  -19.6460   65.4390 C   0  0  0  1  0  0  0  0  0  0  0  0
  -48.2363  -20.3059   64.5875 H   0  0  0  1  0  0  0  0  0  0  0  0
  -49.3010  -19.2650   66.1510 C   0  0  0  1  0  0  0  0  0  0  0  0
  -50.2712  -19.6315   65.8496 H   0  0  0  1  0  0  0  0  0  0  0  0
  -44.6090  -16.9290   66.5050 C   0  0  0  1  0  0  0  0  0  0  0  0
  -43.2450  -16.6910   66.7460 C   0  0  0  1  0  0  0  0  0  0  0  0
  -42.7509  -17.1929   67.5647 H   0  0  0  1  0  0  0  0  0  0  0  0
  -42.5140  -15.8010   65.9270 C   0  0  0  1  0  0  0  0  0  0  0  0
  -41.4684  -15.6253   66.1325 H   0  0  0  1  0  0  0  0  0  0  0  0
  -43.1280  -15.1420   64.8500 C   0  0  0  1  0  0  0  0  0  0  0  0
  -42.5627  -14.4605   64.2316 H   0  0  0  1  0  0  0  0  0  0  0  0
  -44.4780  -15.3790   64.5890 C   0  0  0  1  0  0  0  0  0  0  0  0
  -44.9601  -14.8861   63.7577 H   0  0  0  1  0  0  0  0  0  0  0  0
  -45.2150  -16.2600   65.4070 C   0  0  0  1  0  0  0  0  0  0  0  0
  -46.2603  -16.4297   65.1951 H   0  0  0  1  0  0  0  0  0  0  0  0
  -55.7321  -14.6329   75.1456 O   0  0  0  1  0  0  0  0  0  0  0  0
  1  2  1  0  0  0  0
  1  3  1  0  0  0  0
  1  4  1  0  0  0  0
  1 14  1  0  0  0  0
  4  5  1  0  0  0  0
  4  6  1  0  0  0  0
  6  7  1  0  0  0  0
  6 92  2  0  0  0  0
  7  8  1  0  0  0  0
  7  9  1  0  0  0  0
  7 10  1  0  0  0  0
 10 11  1  0  0  0  0
 10 12  1  0  0  0  0
 10 13  1  0  0  0  0
 14 15  1  0  0  0  0
 14 16  1  0  0  0  0
 14 17  1  0  0  0  0
 17 18  1  0  0  0  0
 17 19  1  0  0  0  0
 17 20  1  0  0  0  0
 20 21  1  0  0  0  0
 20 22  1  0  0  0  0
 20 23  1  0  0  0  0
 23 24  1  0  0  0  0
 23 25  1  0  0  0  0
 25 26  2  0  0  0  0
 25 27  1  0  0  0  0
 27 28  1  0  0  0  0
 27 29  1  0  0  0  0
 29 30  1  0  0  0  0
 29 33  2  0  0  0  0
 30 31  1  0  0  0  0
 30 32  1  0  0  0  0
 33 34  1  0  0  0  0
 34 35  1  0  0  0  0
 34 36  1  0  0  0  0
 34 37  1  0  0  0  0
 37 38  1  0  0  0  0
 37 39  1  0  0  0  0
 37 40  1  0  0  0  0
 40 41  1  0  0  0  0
 40 42  1  0  0  0  0
 40 43  1  0  0  0  0
 43 44  1  0  0  0  0
 43 45  1  0  0  0  0
 43 64  1  0  0  0  0
 45 46  1  0  0  0  0
 45 63  2  0  0  0  0
 46 47  1  0  0  0  0
 46 48  1  0  0  0  0
 48 49  1  0  0  0  0
 48 50  1  0  0  0  0
 48 51  1  0  0  0  0
 51 52  1  0  0  0  0
 51 61  2  0  0  0  0
 52 53  1  0  0  0  0
 52 54  2  0  0  0  0
 54 55  1  0  0  0  0
 54 56  1  0  0  0  0
 56 57  1  0  0  0  0
 56 59  2  0  0  0  0
 57 58  1  0  0  0  0
 59 60  1  0  0  0  0
 59 61  1  0  0  0  0
 61 62  1  0  0  0  0
 64 65  1  0  0  0  0
 64 66  1  0  0  0  0
 66 67  2  0  0  0  0
 66 68  1  0  0  0  0
 68 69  1  0  0  0  0
 68 70  1  0  0  0  0
 68 81  1  0  0  0  0
 70 71  2  0  0  0  0
 70 75  1  0  0  0  0
 71 72  1  0  0  0  0
 71 73  1  0  0  0  0
 73 74  1  0  0  0  0
 73 79  2  0  0  0  0
 75 76  1  0  0  0  0
 75 77  2  0  0  0  0
 77 78  1  0  0  0  0
 77 79  1  0  0  0  0
 79 80  1  0  0  0  0
 81 82  1  0  0  0  0
 81 90  2  0  0  0  0
 82 83  1  0  0  0  0
 82 84  2  0  0  0  0
 84 85  1  0  0  0  0
 84 86  1  0  0  0  0
 86 87  1  0  0  0  0
 86 88  2  0  0  0  0
 88 89  1  0  0  0  0
 88 90  1  0  0  0  0
 90 91  1  0  0  0  0
M  END
> <ConfScore>
-0.637951 

> <SampleByParts>
10 7 6 92 4 1 14 17 20 23 25 26 27 29 30 33

$$$$
NPY1_MK299_12302016.pdb.B
  MOE2014           3D

 92 94  0  0  0  0  0  0  0  0999 V2000
  -54.6457  -17.2967   76.3348 C   0  0  0  1  0  0  0  0  0  0  0  0
  -55.5220  -17.6379   75.7763 H   0  0  0  1  0  0  0  0  0  0  0  0
  -54.9226  -17.2273   77.3920 H   0  0  0  1  0  0  0  0  0  0  0  0
  -54.2805  -15.9573   75.9007 N   0  0  0  1  0  0  0  0  0  0  0  0
  -53.3093  -15.6836   75.9907 H   0  0  0  1  0  0  0  0  0  0  0  0
  -55.0758  -14.9768   75.3721 C   0  0  0  1  0  0  0  0  0  0  0  0
  -54.4191  -13.6517   75.0362 C   0  0  0  1  0  0  0  0  0  0  0  0
  -54.5356  -13.4671   73.9628 H   0  0  0  1  0  0  0  0  0  0  0  0
  -53.3504  -13.7146   75.2638 H   0  0  0  1  0  0  0  0  0  0  0  0
  -55.0237  -12.4928   75.8086 C   0  0  0  1  0  0  0  0  0  0  0  0
  -54.5181  -11.5569   75.5520 H   0  0  0  1  0  0  0  0  0  0  0  0
  -54.9264  -12.6506   76.8865 H   0  0  0  1  0  0  0  0  0  0  0  0
  -56.0887  -12.3805   75.5808 H   0  0  0  1  0  0  0  0  0  0  0  0
  -53.4769  -18.2573   76.1548 C   0  0  0  1  0  0  0  0  0  0  0  0
  -52.6303  -17.8914   76.7457 H   0  0  0  1  0  0  0  0  0  0  0  0
  -53.7365  -19.2392   76.5704 H   0  0  0  1  0  0  0  0  0  0  0  0
  -53.0689  -18.4156   74.6830 C   0  0  0  1  0  0  0  0  0  0  0  0
  -53.9064  -18.8144   74.1106 H   0  0  0  1  0  0  0  0  0  0  0  0
  -52.7884  -17.4404   74.2851 H   0  0  0  1  0  0  0  0  0  0  0  0
  -51.8574  -19.3849   74.5525 C   0  0  0  1  0  0  0  0  0  0  0  0
  -52.1284  -20.3630   74.9500 H   0  0  0  1  0  0  0  0  0  0  0  0
  -51.0105  -18.9874   75.1119 H   0  0  0  1  0  0  0  0  0  0  0  0
  -51.4949  -19.5133   73.1409 N   0  0  0  1  0  0  0  0  0  0  0  0
  -52.0605  -18.9966   72.4829 H   0  0  0  1  0  0  0  0  0  0  0  0
  -50.4456  -20.2771   72.5993 C   0  0  0  1  0  0  0  0  0  0  0  0
  -49.6833  -20.9104   73.3486 O   0  0  0  1  0  0  0  0  0  0  0  0
  -50.4600  -20.2550   71.1740 N   0  0  0  1  0  0  0  0  0  0  0  0
  -51.1638  -19.6515   70.7732 H   0  0  0  1  0  0  0  0  0  0  0  0
  -49.6900  -20.9060   70.2590 C   0  0  0  1  0  0  0  0  0  0  0  0
  -50.2570  -20.8250   69.0000 N   0  0  0  1  0  0  0  0  0  0  0  0
  -49.8842  -21.3783   68.2417 H   0  0  0  1  0  0  0  0  0  0  0  0
  -51.0438  -20.2125   68.8389 H   0  0  0  1  0  0  0  0  0  0  0  0
  -48.6290  -21.7900   70.2920 N   0  0  0  1  0  0  0  0  0  0  0  0
  -47.7070  -22.1200   71.3230 C   0  0  0  1  0  0  0  0  0  0  0  0
  -48.1435  -21.9395   72.3054 H   0  0  0  1  0  0  0  0  0  0  0  0
  -47.3992  -23.1630   71.2482 H   0  0  0  1  0  0  0  0  0  0  0  0
  -46.5220  -21.1840   71.0740 C   0  0  0  1  0  0  0  0  0  0  0  0
  -46.9258  -20.2178   70.7716 H   0  0  0  1  0  0  0  0  0  0  0  0
  -45.9869  -21.0750   72.0173 H   0  0  0  1  0  0  0  0  0  0  0  0
  -45.4860  -21.6160   69.9960 C   0  0  0  1  0  0  0  0  0  0  0  0
  -45.9831  -21.6765   69.0278 H   0  0  0  1  0  0  0  0  0  0  0  0
  -45.0840  -22.5942   70.2597 H   0  0  0  1  0  0  0  0  0  0  0  0
  -44.2930  -20.5720   69.9030 C   0  0  0  1  0  0  0  0  0  0  0  0
  -43.4175  -20.9189   69.3542 H   0  0  0  1  0  0  0  0  0  0  0  0
  -43.9430  -20.2610   71.3950 C   0  0  0  1  0  0  0  0  0  0  0  0
  -43.2680  -21.2970   72.0370 N   0  0  0  1  0  0  0  0  0  0  0  0
  -42.9631  -22.0791   71.4753 H   0  0  0  1  0  0  0  0  0  0  0  0
  -42.9760  -21.3290   73.4430 C   0  0  0  1  0  0  0  0  0  0  0  0
  -42.1220  -21.9707   73.6596 H   0  0  0  1  0  0  0  0  0  0  0  0
  -42.7882  -20.3295   73.8353 H   0  0  0  1  0  0  0  0  0  0  0  0
  -44.2750  -21.9160   74.0000 C   0  0  0  1  0  0  0  0  0  0  0  0
  -44.6710  -23.2570   73.6750 C   0  0  0  1  0  0  0  0  0  0  0  0
  -44.0095  -23.8778   73.0890 H   0  0  0  1  0  0  0  0  0  0  0  0
  -45.9140  -23.7810   74.1090 C   0  0  0  1  0  0  0  0  0  0  0  0
  -46.2001  -24.7938   73.8667 H   0  0  0  1  0  0  0  0  0  0  0  0
  -46.7720  -22.9500   74.8660 C   0  0  0  1  0  0  0  0  0  0  0  0
  -48.0010  -23.3600   75.3380 O   0  0  0  1  0  0  0  0  0  0  0  0
  -48.4837  -22.6994   75.8401 H   0  0  0  1  0  0  0  0  0  0  0  0
  -46.3920  -21.6040   75.1900 C   0  0  0  1  0  0  0  0  0  0  0  0
  -47.0635  -20.9775   75.7583 H   0  0  0  1  0  0  0  0  0  0  0  0
  -45.1510  -21.0990   74.7710 C   0  0  0  1  0  0  0  0  0  0  0  0
  -44.8607  -20.0922   75.0329 H   0  0  0  1  0  0  0  0  0  0  0  0
  -44.2390  -19.1780   71.9410 O   0  0  0  1  0  0  0  0  0  0  0  0
  -44.8310  -19.3810   69.2410 N   0  0  0  1  0  0  0  0  0  0  0  0
  -45.3418  -18.7187   69.8071 H   0  0  0  1  0  0  0  0  0  0  0  0
  -44.6870  -19.1000   67.8890 C   0  0  0  1  0  0  0  0  0  0  0  0
  -44.0790  -19.8190   67.1090 O   0  0  0  1  0  0  0  0  0  0  0  0
  -45.4070  -17.8340   67.4640 C   0  0  0  1  0  0  0  0  0  0  0  0
  -45.5191  -17.1446   68.3008 H   0  0  0  1  0  0  0  0  0  0  0  0
  -46.7920  -18.2790   66.9880 C   0  0  0  1  0  0  0  0  0  0  0  0
  -47.9390  -17.9030   67.6910 C   0  0  0  1  0  0  0  0  0  0  0  0
  -47.8686  -17.2440   68.5437 H   0  0  0  1  0  0  0  0  0  0  0  0
  -49.1880  -18.3970   67.2700 C   0  0  0  1  0  0  0  0  0  0  0  0
  -50.0790  -18.1102   67.8088 H   0  0  0  1  0  0  0  0  0  0  0  0
  -46.9160  -19.1540   65.8530 C   0  0  0  1  0  0  0  0  0  0  0  0
  -46.0285  -19.4383   65.3071 H   0  0  0  1  0  0  0  0  0  0  0  0
  -48.1600  -19.6460   65.4390 C   0  0  0  1  0  0  0  0  0  0  0  0
  -48.2363  -20.3059   64.5875 H   0  0  0  1  0  0  0  0  0  0  0  0
  -49.3010  -19.2650   66.1510 C   0  0  0  1  0  0  0  0  0  0  0  0
  -50.2712  -19.6315   65.8496 H   0  0  0  1  0  0  0  0  0  0  0  0
  -44.6090  -16.9290   66.5050 C   0  0  0  1  0  0  0  0  0  0  0  0
  -43.2450  -16.6910   66.7460 C   0  0  0  1  0  0  0  0  0  0  0  0
  -42.7509  -17.1929   67.5647 H   0  0  0  1  0  0  0  0  0  0  0  0
  -42.5140  -15.8010   65.9270 C   0  0  0  1  0  0  0  0  0  0  0  0
  -41.4684  -15.6253   66.1325 H   0  0  0  1  0  0  0  0  0  0  0  0
  -43.1280  -15.1420   64.8500 C   0  0  0  1  0  0  0  0  0  0  0  0
  -42.5627  -14.4605   64.2316 H   0  0  0  1  0  0  0  0  0  0  0  0
  -44.4780  -15.3790   64.5890 C   0  0  0  1  0  0  0  0  0  0  0  0
  -44.9601  -14.8861   63.7577 H   0  0  0  1  0  0  0  0  0  0  0  0
  -45.2150  -16.2600   65.4070 C   0  0  0  1  0  0  0  0  0  0  0  0
  -46.2603  -16.4297   65.1951 H   0  0  0  1  0  0  0  0  0  0  0  0
  -56.2689  -15.2090   75.1825 O   0  0  0  1  0  0  0  0  0  0  0  0
  1  2  1  0  0  0  0
  1  3  1  0  0  0  0
  1  4  1  0  0  0  0
  1 14  1  0  0  0  0
  4  5  1  0  0  0  0
  4  6  1  0  0  0  0
  6  7  1  0  0  0  0
  6 92  2  0  0  0  0
  7  8  1  0  0  0  0
  7  9  1  0  0  0  0
  7 10  1  0  0  0  0
 10 11  1  0  0  0  0
 10 12  1  0  0  0  0
 10 13  1  0  0  0  0
 14 15  1  0  0  0  0
 14 16  1  0  0  0  0
 14 17  1  0  0  0  0
 17 18  1  0  0  0  0
 17 19  1  0  0  0  0
 17 20  1  0  0  0  0
 20 21  1  0  0  0  0
 20 22  1  0  0  0  0
 20 23  1  0  0  0  0
 23 24  1  0  0  0  0
 23 25  1  0  0  0  0
 25 26  2  0  0  0  0
 25 27  1  0  0  0  0
 27 28  1  0  0  0  0
 27 29  1  0  0  0  0
 29 30  1  0  0  0  0
 29 33  2  0  0  0  0
 30 31  1  0  0  0  0
 30 32  1  0  0  0  0
 33 34  1  0  0  0  0
 34 35  1  0  0  0  0
 34 36  1  0  0  0  0
 34 37  1  0  0  0  0
 37 38  1  0  0  0  0
 37 39  1  0  0  0  0
 37 40  1  0  0  0  0
 40 41  1  0  0  0  0
 40 42  1  0  0  0  0
 40 43  1  0  0  0  0
 43 44  1  0  0  0  0
 43 45  1  0  0  0  0
 43 64  1  0  0  0  0
 45 46  1  0  0  0  0
 45 63  2  0  0  0  0
 46 47  1  0  0  0  0
 46 48  1  0  0  0  0
 48 49  1  0  0  0  0
 48 50  1  0  0  0  0
 48 51  1  0  0  0  0
 51 52  1  0  0  0  0
 51 61  2  0  0  0  0
 52 53  1  0  0  0  0
 52 54  2  0  0  0  0
 54 55  1  0  0  0  0
 54 56  1  0  0  0  0
 56 57  1  0  0  0  0
 56 59  2  0  0  0  0
 57 58  1  0  0  0  0
 59 60  1  0  0  0  0
 59 61  1  0  0  0  0
 61 62  1  0  0  0  0
 64 65  1  0  0  0  0
 64 66  1  0  0  0  0
 66 67  2  0  0  0  0
 66 68  1  0  0  0  0
 68 69  1  0  0  0  0
 68 70  1  0  0  0  0
 68 81  1  0  0  0  0
 70 71  2  0  0  0  0
 70 75  1  0  0  0  0
 71 72  1  0  0  0  0
 71 73  1  0  0  0  0
 73 74  1  0  0  0  0
 73 79  2  0  0  0  0
 75 76  1  0  0  0  0
 75 77  2  0  0  0  0
 77 78  1  0  0  0  0
 77 79  1  0  0  0  0
 79 80  1  0  0  0  0
 81 82  1  0  0  0  0
 81 90  2  0  0  0  0
 82 83  1  0  0  0  0
 82 84  2  0  0  0  0
 84 85  1  0  0  0  0
 84 86  1  0  0  0  0
 86 87  1  0  0  0  0
 86 88  2  0  0  0  0
 88 89  1  0  0  0  0
 88 90  1  0  0  0  0
 90 91  1  0  0  0  0
M  END
> <ConfScore>
-0.637951 

> <SampleByParts>
10 7 6 92 4 1 14 17 20 23 25 26 27 29 30 33

$$$$
NPY1_MK299_12302016.pdb.B
  MOE2014           3D

 92 94  0  0  0  0  0  0  0  0999 V2000
  -54.8029  -16.6675   75.7758 C   0  0  0  1  0  0  0  0  0  0  0  0
  -54.7744  -17.5827   76.3740 H   0  0  0  1  0  0  0  0  0  0  0  0
  -53.9963  -16.0116   76.1198 H   0  0  0  1  0  0  0  0  0  0  0  0
  -56.0545  -15.9660   76.0152 N   0  0  0  1  0  0  0  0  0  0  0  0
  -56.1892  -15.0755   75.5513 H   0  0  0  1  0  0  0  0  0  0  0  0
  -57.1135  -16.3374   76.7986 C   0  0  0  1  0  0  0  0  0  0  0  0
  -58.2908  -15.3847   76.8775 C   0  0  0  1  0  0  0  0  0  0  0  0
  -59.2030  -15.9701   77.0348 H   0  0  0  1  0  0  0  0  0  0  0  0
  -58.3813  -14.8491   75.9273 H   0  0  0  1  0  0  0  0  0  0  0  0
  -58.1462  -14.3767   78.0036 C   0  0  0  1  0  0  0  0  0  0  0  0
  -59.0048  -13.6985   78.0225 H   0  0  0  1  0  0  0  0  0  0  0  0
  -57.2396  -13.7783   77.8764 H   0  0  0  1  0  0  0  0  0  0  0  0
  -58.0839  -14.8776   78.9752 H   0  0  0  1  0  0  0  0  0  0  0  0
  -54.6367  -16.9796   74.2938 C   0  0  0  1  0  0  0  0  0  0  0  0
  -55.5500  -17.4664   73.9352 H   0  0  0  1  0  0  0  0  0  0  0  0
  -54.5467  -16.0449   73.7259 H   0  0  0  1  0  0  0  0  0  0  0  0
  -53.4160  -17.8683   74.0147 C   0  0  0  1  0  0  0  0  0  0  0  0
  -52.5091  -17.3598   74.3418 H   0  0  0  1  0  0  0  0  0  0  0  0
  -53.5253  -18.8045   74.5622 H   0  0  0  1  0  0  0  0  0  0  0  0
  -53.3028  -18.1799   72.4934 C   0  0  0  1  0  0  0  0  0  0  0  0
  -53.1949  -17.2486   71.9374 H   0  0  0  1  0  0  0  0  0  0  0  0
  -54.2007  -18.7002   72.1599 H   0  0  0  1  0  0  0  0  0  0  0  0
  -52.1322  -19.0265   72.2623 N   0  0  0  1  0  0  0  0  0  0  0  0
  -51.5818  -19.2639   73.0752 H   0  0  0  1  0  0  0  0  0  0  0  0
  -51.6888  -19.5461   71.0331 C   0  0  0  1  0  0  0  0  0  0  0  0
  -52.3243  -19.3130   69.9913 O   0  0  0  1  0  0  0  0  0  0  0  0
  -50.4600  -20.2550   71.1740 N   0  0  0  1  0  0  0  0  0  0  0  0
  -50.0976  -20.2784   72.1165 H   0  0  0  1  0  0  0  0  0  0  0  0
  -49.6900  -20.9060   70.2590 C   0  0  0  1  0  0  0  0  0  0  0  0
  -50.2570  -20.8250   69.0000 N   0  0  0  1  0  0  0  0  0  0  0  0
  -49.8842  -21.3783   68.2417 H   0  0  0  1  0  0  0  0  0  0  0  0
  -51.0438  -20.2125   68.8389 H   0  0  0  1  0  0  0  0  0  0  0  0
  -48.6290  -21.7900   70.2920 N   0  0  0  1  0  0  0  0  0  0  0  0
  -47.7070  -22.1200   71.3230 C   0  0  0  1  0  0  0  0  0  0  0  0
  -48.1435  -21.9395   72.3054 H   0  0  0  1  0  0  0  0  0  0  0  0
  -47.3992  -23.1630   71.2482 H   0  0  0  1  0  0  0  0  0  0  0  0
  -46.5220  -21.1840   71.0740 C   0  0  0  1  0  0  0  0  0  0  0  0
  -46.9258  -20.2178   70.7716 H   0  0  0  1  0  0  0  0  0  0  0  0
  -45.9869  -21.0750   72.0173 H   0  0  0  1  0  0  0  0  0  0  0  0
  -45.4860  -21.6160   69.9960 C   0  0  0  1  0  0  0  0  0  0  0  0
  -45.9831  -21.6765   69.0278 H   0  0  0  1  0  0  0  0  0  0  0  0
  -45.0840  -22.5942   70.2597 H   0  0  0  1  0  0  0  0  0  0  0  0
  -44.2930  -20.5720   69.9030 C   0  0  0  1  0  0  0  0  0  0  0  0
  -43.4175  -20.9189   69.3542 H   0  0  0  1  0  0  0  0  0  0  0  0
  -43.9430  -20.2610   71.3950 C   0  0  0  1  0  0  0  0  0  0  0  0
  -43.2680  -21.2970   72.0370 N   0  0  0  1  0  0  0  0  0  0  0  0
  -42.9631  -22.0791   71.4753 H   0  0  0  1  0  0  0  0  0  0  0  0
  -42.9760  -21.3290   73.4430 C   0  0  0  1  0  0  0  0  0  0  0  0
  -42.1220  -21.9707   73.6596 H   0  0  0  1  0  0  0  0  0  0  0  0
  -42.7882  -20.3295   73.8353 H   0  0  0  1  0  0  0  0  0  0  0  0
  -44.2750  -21.9160   74.0000 C   0  0  0  1  0  0  0  0  0  0  0  0
  -44.6710  -23.2570   73.6750 C   0  0  0  1  0  0  0  0  0  0  0  0
  -44.0095  -23.8778   73.0890 H   0  0  0  1  0  0  0  0  0  0  0  0
  -45.9140  -23.7810   74.1090 C   0  0  0  1  0  0  0  0  0  0  0  0
  -46.2001  -24.7938   73.8667 H   0  0  0  1  0  0  0  0  0  0  0  0
  -46.7720  -22.9500   74.8660 C   0  0  0  1  0  0  0  0  0  0  0  0
  -48.0010  -23.3600   75.3380 O   0  0  0  1  0  0  0  0  0  0  0  0
  -48.4837  -22.6994   75.8401 H   0  0  0  1  0  0  0  0  0  0  0  0
  -46.3920  -21.6040   75.1900 C   0  0  0  1  0  0  0  0  0  0  0  0
  -47.0635  -20.9775   75.7583 H   0  0  0  1  0  0  0  0  0  0  0  0
  -45.1510  -21.0990   74.7710 C   0  0  0  1  0  0  0  0  0  0  0  0
  -44.8607  -20.0922   75.0329 H   0  0  0  1  0  0  0  0  0  0  0  0
  -44.2390  -19.1780   71.9410 O   0  0  0  1  0  0  0  0  0  0  0  0
  -44.8310  -19.3810   69.2410 N   0  0  0  1  0  0  0  0  0  0  0  0
  -45.3418  -18.7187   69.8071 H   0  0  0  1  0  0  0  0  0  0  0  0
  -44.6870  -19.1000   67.8890 C   0  0  0  1  0  0  0  0  0  0  0  0
  -44.0790  -19.8190   67.1090 O   0  0  0  1  0  0  0  0  0  0  0  0
  -45.4070  -17.8340   67.4640 C   0  0  0  1  0  0  0  0  0  0  0  0
  -45.5191  -17.1446   68.3008 H   0  0  0  1  0  0  0  0  0  0  0  0
  -46.7920  -18.2790   66.9880 C   0  0  0  1  0  0  0  0  0  0  0  0
  -47.9390  -17.9030   67.6910 C   0  0  0  1  0  0  0  0  0  0  0  0
  -47.8686  -17.2440   68.5437 H   0  0  0  1  0  0  0  0  0  0  0  0
  -49.1880  -18.3970   67.2700 C   0  0  0  1  0  0  0  0  0  0  0  0
  -50.0790  -18.1102   67.8088 H   0  0  0  1  0  0  0  0  0  0  0  0
  -46.9160  -19.1540   65.8530 C   0  0  0  1  0  0  0  0  0  0  0  0
  -46.0285  -19.4383   65.3071 H   0  0  0  1  0  0  0  0  0  0  0  0
  -48.1600  -19.6460   65.4390 C   0  0  0  1  0  0  0  0  0  0  0  0
  -48.2363  -20.3059   64.5875 H   0  0  0  1  0  0  0  0  0  0  0  0
  -49.3010  -19.2650   66.1510 C   0  0  0  1  0  0  0  0  0  0  0  0
  -50.2712  -19.6315   65.8496 H   0  0  0  1  0  0  0  0  0  0  0  0
  -44.6090  -16.9290   66.5050 C   0  0  0  1  0  0  0  0  0  0  0  0
  -43.2450  -16.6910   66.7460 C   0  0  0  1  0  0  0  0  0  0  0  0
  -42.7509  -17.1929   67.5647 H   0  0  0  1  0  0  0  0  0  0  0  0
  -42.5140  -15.8010   65.9270 C   0  0  0  1  0  0  0  0  0  0  0  0
  -41.4684  -15.6253   66.1325 H   0  0  0  1  0  0  0  0  0  0  0  0
  -43.1280  -15.1420   64.8500 C   0  0  0  1  0  0  0  0  0  0  0  0
  -42.5627  -14.4605   64.2316 H   0  0  0  1  0  0  0  0  0  0  0  0
  -44.4780  -15.3790   64.5890 C   0  0  0  1  0  0  0  0  0  0  0  0
  -44.9601  -14.8861   63.7577 H   0  0  0  1  0  0  0  0  0  0  0  0
  -45.2150  -16.2600   65.4070 C   0  0  0  1  0  0  0  0  0  0  0  0
  -46.2603  -16.4297   65.1951 H   0  0  0  1  0  0  0  0  0  0  0  0
  -57.0743  -17.4164   77.3883 O   0  0  0  1  0  0  0  0  0  0  0  0
  1  2  1  0  0  0  0
  1  3  1  0  0  0  0
  1  4  1  0  0  0  0
  1 14  1  0  0  0  0
  4  5  1  0  0  0  0
  4  6  1  0  0  0  0
  6  7  1  0  0  0  0
  6 92  2  0  0  0  0
  7  8  1  0  0  0  0
  7  9  1  0  0  0  0
  7 10  1  0  0  0  0
 10 11  1  0  0  0  0
 10 12  1  0  0  0  0
 10 13  1  0  0  0  0
 14 15  1  0  0  0  0
 14 16  1  0  0  0  0
 14 17  1  0  0  0  0
 17 18  1  0  0  0  0
 17 19  1  0  0  0  0
 17 20  1  0  0  0  0
 20 21  1  0  0  0  0
 20 22  1  0  0  0  0
 20 23  1  0  0  0  0
 23 24  1  0  0  0  0
 23 25  1  0  0  0  0
 25 26  2  0  0  0  0
 25 27  1  0  0  0  0
 27 28  1  0  0  0  0
 27 29  1  0  0  0  0
 29 30  1  0  0  0  0
 29 33  2  0  0  0  0
 30 31  1  0  0  0  0
 30 32  1  0  0  0  0
 33 34  1  0  0  0  0
 34 35  1  0  0  0  0
 34 36  1  0  0  0  0
 34 37  1  0  0  0  0
 37 38  1  0  0  0  0
 37 39  1  0  0  0  0
 37 40  1  0  0  0  0
 40 41  1  0  0  0  0
 40 42  1  0  0  0  0
 40 43  1  0  0  0  0
 43 44  1  0  0  0  0
 43 45  1  0  0  0  0
 43 64  1  0  0  0  0
 45 46  1  0  0  0  0
 45 63  2  0  0  0  0
 46 47  1  0  0  0  0
 46 48  1  0  0  0  0
 48 49  1  0  0  0  0
 48 50  1  0  0  0  0
 48 51  1  0  0  0  0
 51 52  1  0  0  0  0
 51 61  2  0  0  0  0
 52 53  1  0  0  0  0
 52 54  2  0  0  0  0
 54 55  1  0  0  0  0
 54 56  1  0  0  0  0
 56 57  1  0  0  0  0
 56 59  2  0  0  0  0
 57 58  1  0  0  0  0
 59 60  1  0  0  0  0
 59 61  1  0  0  0  0
 61 62  1  0  0  0  0
 64 65  1  0  0  0  0
 64 66  1  0  0  0  0
 66 67  2  0  0  0  0
 66 68  1  0  0  0  0
 68 69  1  0  0  0  0
 68 70  1  0  0  0  0
 68 81  1  0  0  0  0
 70 71  2  0  0  0  0
 70 75  1  0  0  0  0
 71 72  1  0  0  0  0
 71 73  1  0  0  0  0
 73 74  1  0  0  0  0
 73 79  2  0  0  0  0
 75 76  1  0  0  0  0
 75 77  2  0  0  0  0
 77 78  1  0  0  0  0
 77 79  1  0  0  0  0
 79 80  1  0  0  0  0
 81 82  1  0  0  0  0
 81 90  2  0  0  0  0
 82 83  1  0  0  0  0
 82 84  2  0  0  0  0
 84 85  1  0  0  0  0
 84 86  1  0  0  0  0
 86 87  1  0  0  0  0
 86 88  2  0  0  0  0
 88 89  1  0  0  0  0
 88 90  1  0  0  0  0
 90 91  1  0  0  0  0
M  END
> <ConfScore>
-0.63499 

> <SampleByParts>
10 7 6 92 4 1 14 17 20 23 25 26 27 29 30 33

$$$$
NPY1_MK299_12302016.pdb.B
  MOE2014           3D

 92 94  0  0  0  0  0  0  0  0999 V2000
  -54.8666  -16.7697   75.7934 C   0  0  0  1  0  0  0  0  0  0  0  0
  -54.9514  -17.6958   76.3693 H   0  0  0  1  0  0  0  0  0  0  0  0
  -54.0057  -16.2105   76.1744 H   0  0  0  1  0  0  0  0  0  0  0  0
  -56.0439  -15.9453   76.0175 N   0  0  0  1  0  0  0  0  0  0  0  0
  -56.1215  -15.0848   75.4885 H   0  0  0  1  0  0  0  0  0  0  0  0
  -57.0981  -16.1615   76.8632 C   0  0  0  1  0  0  0  0  0  0  0  0
  -58.1938  -15.1135   76.8941 C   0  0  0  1  0  0  0  0  0  0  0  0
  -59.1626  -15.6232   76.9333 H   0  0  0  1  0  0  0  0  0  0  0  0
  -58.1493  -14.5227   75.9737 H   0  0  0  1  0  0  0  0  0  0  0  0
  -58.0726  -14.1830   78.0876 C   0  0  0  1  0  0  0  0  0  0  0  0
  -58.8695  -13.4332   78.0706 H   0  0  0  1  0  0  0  0  0  0  0  0
  -57.1112  -13.6616   78.0784 H   0  0  0  1  0  0  0  0  0  0  0  0
  -58.1443  -14.7379   79.0287 H   0  0  0  1  0  0  0  0  0  0  0  0
  -54.6921  -17.0651   74.3090 C   0  0  0  1  0  0  0  0  0  0  0  0
  -55.5904  -17.5766   73.9470 H   0  0  0  1  0  0  0  0  0  0  0  0
  -54.6309  -16.1237   73.7483 H   0  0  0  1  0  0  0  0  0  0  0  0
  -53.4452  -17.9141   74.0223 C   0  0  0  1  0  0  0  0  0  0  0  0
  -52.5539  -17.3809   74.3530 H   0  0  0  1  0  0  0  0  0  0  0  0
  -53.5256  -18.8574   74.5625 H   0  0  0  1  0  0  0  0  0  0  0  0
  -53.3236  -18.2103   72.4986 C   0  0  0  1  0  0  0  0  0  0  0  0
  -53.2444  -17.2718   71.9498 H   0  0  0  1  0  0  0  0  0  0  0  0
  -54.2055  -18.7549   72.1614 H   0  0  0  1  0  0  0  0  0  0  0  0
  -52.1280  -19.0191   72.2603 N   0  0  0  1  0  0  0  0  0  0  0  0
  -51.5786  -19.2591   73.0731 H   0  0  0  1  0  0  0  0  0  0  0  0
  -51.6594  -19.4991   71.0244 C   0  0  0  1  0  0  0  0  0  0  0  0
  -52.2504  -19.1989   69.9736 O   0  0  0  1  0  0  0  0  0  0  0  0
  -50.4600  -20.2550   71.1740 N   0  0  0  1  0  0  0  0  0  0  0  0
  -50.1228  -20.3188   72.1239 H   0  0  0  1  0  0  0  0  0  0  0  0
  -49.6900  -20.9060   70.2590 C   0  0  0  1  0  0  0  0  0  0  0  0
  -50.2570  -20.8250   69.0000 N   0  0  0  1  0  0  0  0  0  0  0  0
  -49.8842  -21.3783   68.2417 H   0  0  0  1  0  0  0  0  0  0  0  0
  -51.0438  -20.2125   68.8389 H   0  0  0  1  0  0  0  0  0  0  0  0
  -48.6290  -21.7900   70.2920 N   0  0  0  1  0  0  0  0  0  0  0  0
  -47.7070  -22.1200   71.3230 C   0  0  0  1  0  0  0  0  0  0  0  0
  -48.1435  -21.9395   72.3054 H   0  0  0  1  0  0  0  0  0  0  0  0
  -47.3992  -23.1630   71.2482 H   0  0  0  1  0  0  0  0  0  0  0  0
  -46.5220  -21.1840   71.0740 C   0  0  0  1  0  0  0  0  0  0  0  0
  -46.9258  -20.2178   70.7716 H   0  0  0  1  0  0  0  0  0  0  0  0
  -45.9869  -21.0750   72.0173 H   0  0  0  1  0  0  0  0  0  0  0  0
  -45.4860  -21.6160   69.9960 C   0  0  0  1  0  0  0  0  0  0  0  0
  -45.9831  -21.6765   69.0278 H   0  0  0  1  0  0  0  0  0  0  0  0
  -45.0840  -22.5942   70.2597 H   0  0  0  1  0  0  0  0  0  0  0  0
  -44.2930  -20.5720   69.9030 C   0  0  0  1  0  0  0  0  0  0  0  0
  -43.4175  -20.9189   69.3542 H   0  0  0  1  0  0  0  0  0  0  0  0
  -43.9430  -20.2610   71.3950 C   0  0  0  1  0  0  0  0  0  0  0  0
  -43.2680  -21.2970   72.0370 N   0  0  0  1  0  0  0  0  0  0  0  0
  -42.9631  -22.0791   71.4753 H   0  0  0  1  0  0  0  0  0  0  0  0
  -42.9760  -21.3290   73.4430 C   0  0  0  1  0  0  0  0  0  0  0  0
  -42.1220  -21.9707   73.6596 H   0  0  0  1  0  0  0  0  0  0  0  0
  -42.7882  -20.3295   73.8353 H   0  0  0  1  0  0  0  0  0  0  0  0
  -44.2750  -21.9160   74.0000 C   0  0  0  1  0  0  0  0  0  0  0  0
  -44.6710  -23.2570   73.6750 C   0  0  0  1  0  0  0  0  0  0  0  0
  -44.0095  -23.8778   73.0890 H   0  0  0  1  0  0  0  0  0  0  0  0
  -45.9140  -23.7810   74.1090 C   0  0  0  1  0  0  0  0  0  0  0  0
  -46.2001  -24.7938   73.8667 H   0  0  0  1  0  0  0  0  0  0  0  0
  -46.7720  -22.9500   74.8660 C   0  0  0  1  0  0  0  0  0  0  0  0
  -48.0010  -23.3600   75.3380 O   0  0  0  1  0  0  0  0  0  0  0  0
  -48.4837  -22.6994   75.8401 H   0  0  0  1  0  0  0  0  0  0  0  0
  -46.3920  -21.6040   75.1900 C   0  0  0  1  0  0  0  0  0  0  0  0
  -47.0635  -20.9775   75.7583 H   0  0  0  1  0  0  0  0  0  0  0  0
  -45.1510  -21.0990   74.7710 C   0  0  0  1  0  0  0  0  0  0  0  0
  -44.8607  -20.0922   75.0329 H   0  0  0  1  0  0  0  0  0  0  0  0
  -44.2390  -19.1780   71.9410 O   0  0  0  1  0  0  0  0  0  0  0  0
  -44.8310  -19.3810   69.2410 N   0  0  0  1  0  0  0  0  0  0  0  0
  -45.3418  -18.7187   69.8071 H   0  0  0  1  0  0  0  0  0  0  0  0
  -44.6870  -19.1000   67.8890 C   0  0  0  1  0  0  0  0  0  0  0  0
  -44.0790  -19.8190   67.1090 O   0  0  0  1  0  0  0  0  0  0  0  0
  -45.4070  -17.8340   67.4640 C   0  0  0  1  0  0  0  0  0  0  0  0
  -45.5191  -17.1446   68.3008 H   0  0  0  1  0  0  0  0  0  0  0  0
  -46.7920  -18.2790   66.9880 C   0  0  0  1  0  0  0  0  0  0  0  0
  -47.9390  -17.9030   67.6910 C   0  0  0  1  0  0  0  0  0  0  0  0
  -47.8686  -17.2440   68.5437 H   0  0  0  1  0  0  0  0  0  0  0  0
  -49.1880  -18.3970   67.2700 C   0  0  0  1  0  0  0  0  0  0  0  0
  -50.0790  -18.1102   67.8088 H   0  0  0  1  0  0  0  0  0  0  0  0
  -46.9160  -19.1540   65.8530 C   0  0  0  1  0  0  0  0  0  0  0  0
  -46.0285  -19.4383   65.3071 H   0  0  0  1  0  0  0  0  0  0  0  0
  -48.1600  -19.6460   65.4390 C   0  0  0  1  0  0  0  0  0  0  0  0
  -48.2363  -20.3059   64.5875 H   0  0  0  1  0  0  0  0  0  0  0  0
  -49.3010  -19.2650   66.1510 C   0  0  0  1  0  0  0  0  0  0  0  0
  -50.2712  -19.6315   65.8496 H   0  0  0  1  0  0  0  0  0  0  0  0
  -44.6090  -16.9290   66.5050 C   0  0  0  1  0  0  0  0  0  0  0  0
  -43.2450  -16.6910   66.7460 C   0  0  0  1  0  0  0  0  0  0  0  0
  -42.7509  -17.1929   67.5647 H   0  0  0  1  0  0  0  0  0  0  0  0
  -42.5140  -15.8010   65.9270 C   0  0  0  1  0  0  0  0  0  0  0  0
  -41.4684  -15.6253   66.1325 H   0  0  0  1  0  0  0  0  0  0  0  0
  -43.1280  -15.1420   64.8500 C   0  0  0  1  0  0  0  0  0  0  0  0
  -42.5627  -14.4605   64.2316 H   0  0  0  1  0  0  0  0  0  0  0  0
  -44.4780  -15.3790   64.5890 C   0  0  0  1  0  0  0  0  0  0  0  0
  -44.9601  -14.8861   63.7577 H   0  0  0  1  0  0  0  0  0  0  0  0
  -45.2150  -16.2600   65.4070 C   0  0  0  1  0  0  0  0  0  0  0  0
  -46.2603  -16.4297   65.1951 H   0  0  0  1  0  0  0  0  0  0  0  0
  -57.1206  -17.1856   77.5445 O   0  0  0  1  0  0  0  0  0  0  0  0
  1  2  1  0  0  0  0
  1  3  1  0  0  0  0
  1  4  1  0  0  0  0
  1 14  1  0  0  0  0
  4  5  1  0  0  0  0
  4  6  1  0  0  0  0
  6  7  1  0  0  0  0
  6 92  2  0  0  0  0
  7  8  1  0  0  0  0
  7  9  1  0  0  0  0
  7 10  1  0  0  0  0
 10 11  1  0  0  0  0
 10 12  1  0  0  0  0
 10 13  1  0  0  0  0
 14 15  1  0  0  0  0
 14 16  1  0  0  0  0
 14 17  1  0  0  0  0
 17 18  1  0  0  0  0
 17 19  1  0  0  0  0
 17 20  1  0  0  0  0
 20 21  1  0  0  0  0
 20 22  1  0  0  0  0
 20 23  1  0  0  0  0
 23 24  1  0  0  0  0
 23 25  1  0  0  0  0
 25 26  2  0  0  0  0
 25 27  1  0  0  0  0
 27 28  1  0  0  0  0
 27 29  1  0  0  0  0
 29 30  1  0  0  0  0
 29 33  2  0  0  0  0
 30 31  1  0  0  0  0
 30 32  1  0  0  0  0
 33 34  1  0  0  0  0
 34 35  1  0  0  0  0
 34 36  1  0  0  0  0
 34 37  1  0  0  0  0
 37 38  1  0  0  0  0
 37 39  1  0  0  0  0
 37 40  1  0  0  0  0
 40 41  1  0  0  0  0
 40 42  1  0  0  0  0
 40 43  1  0  0  0  0
 43 44  1  0  0  0  0
 43 45  1  0  0  0  0
 43 64  1  0  0  0  0
 45 46  1  0  0  0  0
 45 63  2  0  0  0  0
 46 47  1  0  0  0  0
 46 48  1  0  0  0  0
 48 49  1  0  0  0  0
 48 50  1  0  0  0  0
 48 51  1  0  0  0  0
 51 52  1  0  0  0  0
 51 61  2  0  0  0  0
 52 53  1  0  0  0  0
 52 54  2  0  0  0  0
 54 55  1  0  0  0  0
 54 56  1  0  0  0  0
 56 57  1  0  0  0  0
 56 59  2  0  0  0  0
 57 58  1  0  0  0  0
 59 60  1  0  0  0  0
 59 61  1  0  0  0  0
 61 62  1  0  0  0  0
 64 65  1  0  0  0  0
 64 66  1  0  0  0  0
 66 67  2  0  0  0  0
 66 68  1  0  0  0  0
 68 69  1  0  0  0  0
 68 70  1  0  0  0  0
 68 81  1  0  0  0  0
 70 71  2  0  0  0  0
 70 75  1  0  0  0  0
 71 72  1  0  0  0  0
 71 73  1  0  0  0  0
 73 74  1  0  0  0  0
 73 79  2  0  0  0  0
 75 76  1  0  0  0  0
 75 77  2  0  0  0  0
 77 78  1  0  0  0  0
 77 79  1  0  0  0  0
 79 80  1  0  0  0  0
 81 82  1  0  0  0  0
 81 90  2  0  0  0  0
 82 83  1  0  0  0  0
 82 84  2  0  0  0  0
 84 85  1  0  0  0  0
 84 86  1  0  0  0  0
 86 87  1  0  0  0  0
 86 88  2  0  0  0  0
 88 89  1  0  0  0  0
 88 90  1  0  0  0  0
 90 91  1  0  0  0  0
M  END
> <ConfScore>
-0.63499 

> <SampleByParts>
10 7 6 92 4 1 14 17 20 23 25 26 27 29 30 33

$$$$
NPY1_MK299_12302016.pdb.B
  MOE2014           3D

 92 94  0  0  0  0  0  0  0  0999 V2000
  -54.8164  -16.7180   75.7902 C   0  0  0  1  0  0  0  0  0  0  0  0
  -54.9412  -17.6183   76.3986 H   0  0  0  1  0  0  0  0  0  0  0  0
  -53.9169  -16.1971   76.1349 H   0  0  0  1  0  0  0  0  0  0  0  0
  -55.9397  -15.8202   76.0096 N   0  0  0  1  0  0  0  0  0  0  0  0
  -55.8957  -14.9015   75.5848 H   0  0  0  1  0  0  0  0  0  0  0  0
  -57.0853  -16.0340   76.7273 C   0  0  0  1  0  0  0  0  0  0  0  0
  -58.0695  -14.8847   76.8288 C   0  0  0  1  0  0  0  0  0  0  0  0
  -59.0823  -15.2803   76.6964 H   0  0  0  1  0  0  0  0  0  0  0  0
  -57.8682  -14.1698   76.0248 H   0  0  0  1  0  0  0  0  0  0  0  0
  -57.9865  -14.1666   78.1639 C   0  0  0  1  0  0  0  0  0  0  0  0
  -58.6993  -13.3369   78.1969 H   0  0  0  1  0  0  0  0  0  0  0  0
  -56.9831  -13.7632   78.3270 H   0  0  0  1  0  0  0  0  0  0  0  0
  -58.2134  -14.8464   78.9916 H   0  0  0  1  0  0  0  0  0  0  0  0
  -54.6913  -17.0713   74.3135 C   0  0  0  1  0  0  0  0  0  0  0  0
  -55.6250  -17.5417   73.9869 H   0  0  0  1  0  0  0  0  0  0  0  0
  -54.5888  -16.1538   73.7201 H   0  0  0  1  0  0  0  0  0  0  0  0
  -53.5013  -17.9996   74.0310 C   0  0  0  1  0  0  0  0  0  0  0  0
  -52.5896  -17.5621   74.4377 H   0  0  0  1  0  0  0  0  0  0  0  0
  -53.6834  -18.9647   74.5038 H   0  0  0  1  0  0  0  0  0  0  0  0
  -53.3236  -18.2103   72.4986 C   0  0  0  1  0  0  0  0  0  0  0  0
  -53.2135  -17.2432   72.0078 H   0  0  0  1  0  0  0  0  0  0  0  0
  -54.1973  -18.7238   72.0973 H   0  0  0  1  0  0  0  0  0  0  0  0
  -52.1280  -19.0191   72.2603 N   0  0  0  1  0  0  0  0  0  0  0  0
  -51.5786  -19.2591   73.0731 H   0  0  0  1  0  0  0  0  0  0  0  0
  -51.6594  -19.4991   71.0244 C   0  0  0  1  0  0  0  0  0  0  0  0
  -52.2504  -19.1989   69.9736 O   0  0  0  1  0  0  0  0  0  0  0  0
  -50.4600  -20.2550   71.1740 N   0  0  0  1  0  0  0  0  0  0  0  0
  -50.1228  -20.3188   72.1239 H   0  0  0  1  0  0  0  0  0  0  0  0
  -49.6900  -20.9060   70.2590 C   0  0  0  1  0  0  0  0  0  0  0  0
  -50.2570  -20.8250   69.0000 N   0  0  0  1  0  0  0  0  0  0  0  0
  -49.8842  -21.3783   68.2417 H   0  0  0  1  0  0  0  0  0  0  0  0
  -51.0438  -20.2125   68.8389 H   0  0  0  1  0  0  0  0  0  0  0  0
  -48.6290  -21.7900   70.2920 N   0  0  0  1  0  0  0  0  0  0  0  0
  -47.7070  -22.1200   71.3230 C   0  0  0  1  0  0  0  0  0  0  0  0
  -48.1435  -21.9395   72.3054 H   0  0  0  1  0  0  0  0  0  0  0  0
  -47.3992  -23.1630   71.2482 H   0  0  0  1  0  0  0  0  0  0  0  0
  -46.5220  -21.1840   71.0740 C   0  0  0  1  0  0  0  0  0  0  0  0
  -46.9258  -20.2178   70.7716 H   0  0  0  1  0  0  0  0  0  0  0  0
  -45.9869  -21.0750   72.0173 H   0  0  0  1  0  0  0  0  0  0  0  0
  -45.4860  -21.6160   69.9960 C   0  0  0  1  0  0  0  0  0  0  0  0
  -45.9831  -21.6765   69.0278 H   0  0  0  1  0  0  0  0  0  0  0  0
  -45.0840  -22.5942   70.2597 H   0  0  0  1  0  0  0  0  0  0  0  0
  -44.2930  -20.5720   69.9030 C   0  0  0  1  0  0  0  0  0  0  0  0
  -43.4175  -20.9189   69.3542 H   0  0  0  1  0  0  0  0  0  0  0  0
  -43.9430  -20.2610   71.3950 C   0  0  0  1  0  0  0  0  0  0  0  0
  -43.2680  -21.2970   72.0370 N   0  0  0  1  0  0  0  0  0  0  0  0
  -42.9631  -22.0791   71.4753 H   0  0  0  1  0  0  0  0  0  0  0  0
  -42.9760  -21.3290   73.4430 C   0  0  0  1  0  0  0  0  0  0  0  0
  -42.1220  -21.9707   73.6596 H   0  0  0  1  0  0  0  0  0  0  0  0
  -42.7882  -20.3295   73.8353 H   0  0  0  1  0  0  0  0  0  0  0  0
  -44.2750  -21.9160   74.0000 C   0  0  0  1  0  0  0  0  0  0  0  0
  -44.6710  -23.2570   73.6750 C   0  0  0  1  0  0  0  0  0  0  0  0
  -44.0095  -23.8778   73.0890 H   0  0  0  1  0  0  0  0  0  0  0  0
  -45.9140  -23.7810   74.1090 C   0  0  0  1  0  0  0  0  0  0  0  0
  -46.2001  -24.7938   73.8667 H   0  0  0  1  0  0  0  0  0  0  0  0
  -46.7720  -22.9500   74.8660 C   0  0  0  1  0  0  0  0  0  0  0  0
  -48.0010  -23.3600   75.3380 O   0  0  0  1  0  0  0  0  0  0  0  0
  -48.4837  -22.6994   75.8401 H   0  0  0  1  0  0  0  0  0  0  0  0
  -46.3920  -21.6040   75.1900 C   0  0  0  1  0  0  0  0  0  0  0  0
  -47.0635  -20.9775   75.7583 H   0  0  0  1  0  0  0  0  0  0  0  0
  -45.1510  -21.0990   74.7710 C   0  0  0  1  0  0  0  0  0  0  0  0
  -44.8607  -20.0922   75.0329 H   0  0  0  1  0  0  0  0  0  0  0  0
  -44.2390  -19.1780   71.9410 O   0  0  0  1  0  0  0  0  0  0  0  0
  -44.8310  -19.3810   69.2410 N   0  0  0  1  0  0  0  0  0  0  0  0
  -45.3418  -18.7187   69.8071 H   0  0  0  1  0  0  0  0  0  0  0  0
  -44.6870  -19.1000   67.8890 C   0  0  0  1  0  0  0  0  0  0  0  0
  -44.0790  -19.8190   67.1090 O   0  0  0  1  0  0  0  0  0  0  0  0
  -45.4070  -17.8340   67.4640 C   0  0  0  1  0  0  0  0  0  0  0  0
  -45.5191  -17.1446   68.3008 H   0  0  0  1  0  0  0  0  0  0  0  0
  -46.7920  -18.2790   66.9880 C   0  0  0  1  0  0  0  0  0  0  0  0
  -47.9390  -17.9030   67.6910 C   0  0  0  1  0  0  0  0  0  0  0  0
  -47.8686  -17.2440   68.5437 H   0  0  0  1  0  0  0  0  0  0  0  0
  -49.1880  -18.3970   67.2700 C   0  0  0  1  0  0  0  0  0  0  0  0
  -50.0790  -18.1102   67.8088 H   0  0  0  1  0  0  0  0  0  0  0  0
  -46.9160  -19.1540   65.8530 C   0  0  0  1  0  0  0  0  0  0  0  0
  -46.0285  -19.4383   65.3071 H   0  0  0  1  0  0  0  0  0  0  0  0
  -48.1600  -19.6460   65.4390 C   0  0  0  1  0  0  0  0  0  0  0  0
  -48.2363  -20.3059   64.5875 H   0  0  0  1  0  0  0  0  0  0  0  0
  -49.3010  -19.2650   66.1510 C   0  0  0  1  0  0  0  0  0  0  0  0
  -50.2712  -19.6315   65.8496 H   0  0  0  1  0  0  0  0  0  0  0  0
  -44.6090  -16.9290   66.5050 C   0  0  0  1  0  0  0  0  0  0  0  0
  -43.2450  -16.6910   66.7460 C   0  0  0  1  0  0  0  0  0  0  0  0
  -42.7509  -17.1929   67.5647 H   0  0  0  1  0  0  0  0  0  0  0  0
  -42.5140  -15.8010   65.9270 C   0  0  0  1  0  0  0  0  0  0  0  0
  -41.4684  -15.6253   66.1325 H   0  0  0  1  0  0  0  0  0  0  0  0
  -43.1280  -15.1420   64.8500 C   0  0  0  1  0  0  0  0  0  0  0  0
  -42.5627  -14.4605   64.2316 H   0  0  0  1  0  0  0  0  0  0  0  0
  -44.4780  -15.3790   64.5890 C   0  0  0  1  0  0  0  0  0  0  0  0
  -44.9601  -14.8861   63.7577 H   0  0  0  1  0  0  0  0  0  0  0  0
  -45.2150  -16.2600   65.4070 C   0  0  0  1  0  0  0  0  0  0  0  0
  -46.2603  -16.4297   65.1951 H   0  0  0  1  0  0  0  0  0  0  0  0
  -57.2738  -17.1350   77.2429 O   0  0  0  1  0  0  0  0  0  0  0  0
  1  2  1  0  0  0  0
  1  3  1  0  0  0  0
  1  4  1  0  0  0  0
  1 14  1  0  0  0  0
  4  5  1  0  0  0  0
  4  6  1  0  0  0  0
  6  7  1  0  0  0  0
  6 92  2  0  0  0  0
  7  8  1  0  0  0  0
  7  9  1  0  0  0  0
  7 10  1  0  0  0  0
 10 11  1  0  0  0  0
 10 12  1  0  0  0  0
 10 13  1  0  0  0  0
 14 15  1  0  0  0  0
 14 16  1  0  0  0  0
 14 17  1  0  0  0  0
 17 18  1  0  0  0  0
 17 19  1  0  0  0  0
 17 20  1  0  0  0  0
 20 21  1  0  0  0  0
 20 22  1  0  0  0  0
 20 23  1  0  0  0  0
 23 24  1  0  0  0  0
 23 25  1  0  0  0  0
 25 26  2  0  0  0  0
 25 27  1  0  0  0  0
 27 28  1  0  0  0  0
 27 29  1  0  0  0  0
 29 30  1  0  0  0  0
 29 33  2  0  0  0  0
 30 31  1  0  0  0  0
 30 32  1  0  0  0  0
 33 34  1  0  0  0  0
 34 35  1  0  0  0  0
 34 36  1  0  0  0  0
 34 37  1  0  0  0  0
 37 38  1  0  0  0  0
 37 39  1  0  0  0  0
 37 40  1  0  0  0  0
 40 41  1  0  0  0  0
 40 42  1  0  0  0  0
 40 43  1  0  0  0  0
 43 44  1  0  0  0  0
 43 45  1  0  0  0  0
 43 64  1  0  0  0  0
 45 46  1  0  0  0  0
 45 63  2  0  0  0  0
 46 47  1  0  0  0  0
 46 48  1  0  0  0  0
 48 49  1  0  0  0  0
 48 50  1  0  0  0  0
 48 51  1  0  0  0  0
 51 52  1  0  0  0  0
 51 61  2  0  0  0  0
 52 53  1  0  0  0  0
 52 54  2  0  0  0  0
 54 55  1  0  0  0  0
 54 56  1  0  0  0  0
 56 57  1  0  0  0  0
 56 59  2  0  0  0  0
 57 58  1  0  0  0  0
 59 60  1  0  0  0  0
 59 61  1  0  0  0  0
 61 62  1  0  0  0  0
 64 65  1  0  0  0  0
 64 66  1  0  0  0  0
 66 67  2  0  0  0  0
 66 68  1  0  0  0  0
 68 69  1  0  0  0  0
 68 70  1  0  0  0  0
 68 81  1  0  0  0  0
 70 71  2  0  0  0  0
 70 75  1  0  0  0  0
 71 72  1  0  0  0  0
 71 73  1  0  0  0  0
 73 74  1  0  0  0  0
 73 79  2  0  0  0  0
 75 76  1  0  0  0  0
 75 77  2  0  0  0  0
 77 78  1  0  0  0  0
 77 79  1  0  0  0  0
 79 80  1  0  0  0  0
 81 82  1  0  0  0  0
 81 90  2  0  0  0  0
 82 83  1  0  0  0  0
 82 84  2  0  0  0  0
 84 85  1  0  0  0  0
 84 86  1  0  0  0  0
 86 87  1  0  0  0  0
 86 88  2  0  0  0  0
 88 89  1  0  0  0  0
 88 90  1  0  0  0  0
 90 91  1  0  0  0  0
M  END
> <ConfScore>
-0.63499 

> <SampleByParts>
10 7 6 92 4 1 14 17 20 23 25 26 27 29 30 33

$$$$
NPY1_MK299_12302016.pdb.B
  MOE2014           3D

 92 94  0  0  0  0  0  0  0  0999 V2000
  -54.8556  -16.7479   75.7876 C   0  0  0  1  0  0  0  0  0  0  0  0
  -55.0364  -17.6854   76.3213 H   0  0  0  1  0  0  0  0  0  0  0  0
  -53.9681  -16.2757   76.2217 H   0  0  0  1  0  0  0  0  0  0  0  0
  -55.9710  -15.8395   76.0040 N   0  0  0  1  0  0  0  0  0  0  0  0
  -55.9081  -14.9142   75.5964 H   0  0  0  1  0  0  0  0  0  0  0  0
  -57.1313  -16.0509   76.6984 C   0  0  0  1  0  0  0  0  0  0  0  0
  -58.1167  -14.9008   76.7767 C   0  0  0  1  0  0  0  0  0  0  0  0
  -59.1298  -15.3131   76.8348 H   0  0  0  1  0  0  0  0  0  0  0  0
  -58.0380  -14.3001   75.8651 H   0  0  0  1  0  0  0  0  0  0  0  0
  -57.8727  -14.0093   77.9812 C   0  0  0  1  0  0  0  0  0  0  0  0
  -58.5916  -13.1845   77.9985 H   0  0  0  1  0  0  0  0  0  0  0  0
  -56.8650  -13.5851   77.9536 H   0  0  0  1  0  0  0  0  0  0  0  0
  -57.9743  -14.5720   78.9149 H   0  0  0  1  0  0  0  0  0  0  0  0
  -54.6482  -16.9992   74.2994 C   0  0  0  1  0  0  0  0  0  0  0  0
  -55.5574  -17.4547   73.8923 H   0  0  0  1  0  0  0  0  0  0  0  0
  -54.5259  -16.0428   73.7753 H   0  0  0  1  0  0  0  0  0  0  0  0
  -53.4335  -17.8957   74.0194 C   0  0  0  1  0  0  0  0  0  0  0  0
  -52.5293  -17.4171   74.3957 H   0  0  0  1  0  0  0  0  0  0  0  0
  -53.5743  -18.8524   74.5224 H   0  0  0  1  0  0  0  0  0  0  0  0
  -53.2777  -18.1440   72.4902 C   0  0  0  1  0  0  0  0  0  0  0  0
  -53.1202  -17.1934   71.9806 H   0  0  0  1  0  0  0  0  0  0  0  0
  -54.1800  -18.6181   72.1040 H   0  0  0  1  0  0  0  0  0  0  0  0
  -52.1280  -19.0191   72.2603 N   0  0  0  1  0  0  0  0  0  0  0  0
  -51.6143  -19.3106   73.0795 H   0  0  0  1  0  0  0  0  0  0  0  0
  -51.6594  -19.4991   71.0244 C   0  0  0  1  0  0  0  0  0  0  0  0
  -52.2504  -19.1989   69.9736 O   0  0  0  1  0  0  0  0  0  0  0  0
  -50.4600  -20.2550   71.1740 N   0  0  0  1  0  0  0  0  0  0  0  0
  -50.1228  -20.3188   72.1239 H   0  0  0  1  0  0  0  0  0  0  0  0
  -49.6900  -20.9060   70.2590 C   0  0  0  1  0  0  0  0  0  0  0  0
  -50.2570  -20.8250   69.0000 N   0  0  0  1  0  0  0  0  0  0  0  0
  -49.8842  -21.3783   68.2417 H   0  0  0  1  0  0  0  0  0  0  0  0
  -51.0438  -20.2125   68.8389 H   0  0  0  1  0  0  0  0  0  0  0  0
  -48.6290  -21.7900   70.2920 N   0  0  0  1  0  0  0  0  0  0  0  0
  -47.7070  -22.1200   71.3230 C   0  0  0  1  0  0  0  0  0  0  0  0
  -48.1435  -21.9395   72.3054 H   0  0  0  1  0  0  0  0  0  0  0  0
  -47.3992  -23.1630   71.2482 H   0  0  0  1  0  0  0  0  0  0  0  0
  -46.5220  -21.1840   71.0740 C   0  0  0  1  0  0  0  0  0  0  0  0
  -46.9258  -20.2178   70.7716 H   0  0  0  1  0  0  0  0  0  0  0  0
  -45.9869  -21.0750   72.0173 H   0  0  0  1  0  0  0  0  0  0  0  0
  -45.4860  -21.6160   69.9960 C   0  0  0  1  0  0  0  0  0  0  0  0
  -45.9831  -21.6765   69.0278 H   0  0  0  1  0  0  0  0  0  0  0  0
  -45.0840  -22.5942   70.2597 H   0  0  0  1  0  0  0  0  0  0  0  0
  -44.2930  -20.5720   69.9030 C   0  0  0  1  0  0  0  0  0  0  0  0
  -43.4175  -20.9189   69.3542 H   0  0  0  1  0  0  0  0  0  0  0  0
  -43.9430  -20.2610   71.3950 C   0  0  0  1  0  0  0  0  0  0  0  0
  -43.2680  -21.2970   72.0370 N   0  0  0  1  0  0  0  0  0  0  0  0
  -42.9631  -22.0791   71.4753 H   0  0  0  1  0  0  0  0  0  0  0  0
  -42.9760  -21.3290   73.4430 C   0  0  0  1  0  0  0  0  0  0  0  0
  -42.1220  -21.9707   73.6596 H   0  0  0  1  0  0  0  0  0  0  0  0
  -42.7882  -20.3295   73.8353 H   0  0  0  1  0  0  0  0  0  0  0  0
  -44.2750  -21.9160   74.0000 C   0  0  0  1  0  0  0  0  0  0  0  0
  -44.6710  -23.2570   73.6750 C   0  0  0  1  0  0  0  0  0  0  0  0
  -44.0095  -23.8778   73.0890 H   0  0  0  1  0  0  0  0  0  0  0  0
  -45.9140  -23.7810   74.1090 C   0  0  0  1  0  0  0  0  0  0  0  0
  -46.2001  -24.7938   73.8667 H   0  0  0  1  0  0  0  0  0  0  0  0
  -46.7720  -22.9500   74.8660 C   0  0  0  1  0  0  0  0  0  0  0  0
  -48.0010  -23.3600   75.3380 O   0  0  0  1  0  0  0  0  0  0  0  0
  -48.4837  -22.6994   75.8401 H   0  0  0  1  0  0  0  0  0  0  0  0
  -46.3920  -21.6040   75.1900 C   0  0  0  1  0  0  0  0  0  0  0  0
  -47.0635  -20.9775   75.7583 H   0  0  0  1  0  0  0  0  0  0  0  0
  -45.1510  -21.0990   74.7710 C   0  0  0  1  0  0  0  0  0  0  0  0
  -44.8607  -20.0922   75.0329 H   0  0  0  1  0  0  0  0  0  0  0  0
  -44.2390  -19.1780   71.9410 O   0  0  0  1  0  0  0  0  0  0  0  0
  -44.8310  -19.3810   69.2410 N   0  0  0  1  0  0  0  0  0  0  0  0
  -45.3418  -18.7187   69.8071 H   0  0  0  1  0  0  0  0  0  0  0  0
  -44.6870  -19.1000   67.8890 C   0  0  0  1  0  0  0  0  0  0  0  0
  -44.0790  -19.8190   67.1090 O   0  0  0  1  0  0  0  0  0  0  0  0
  -45.4070  -17.8340   67.4640 C   0  0  0  1  0  0  0  0  0  0  0  0
  -45.5191  -17.1446   68.3008 H   0  0  0  1  0  0  0  0  0  0  0  0
  -46.7920  -18.2790   66.9880 C   0  0  0  1  0  0  0  0  0  0  0  0
  -47.9390  -17.9030   67.6910 C   0  0  0  1  0  0  0  0  0  0  0  0
  -47.8686  -17.2440   68.5437 H   0  0  0  1  0  0  0  0  0  0  0  0
  -49.1880  -18.3970   67.2700 C   0  0  0  1  0  0  0  0  0  0  0  0
  -50.0790  -18.1102   67.8088 H   0  0  0  1  0  0  0  0  0  0  0  0
  -46.9160  -19.1540   65.8530 C   0  0  0  1  0  0  0  0  0  0  0  0
  -46.0285  -19.4383   65.3071 H   0  0  0  1  0  0  0  0  0  0  0  0
  -48.1600  -19.6460   65.4390 C   0  0  0  1  0  0  0  0  0  0  0  0
  -48.2363  -20.3059   64.5875 H   0  0  0  1  0  0  0  0  0  0  0  0
  -49.3010  -19.2650   66.1510 C   0  0  0  1  0  0  0  0  0  0  0  0
  -50.2712  -19.6315   65.8496 H   0  0  0  1  0  0  0  0  0  0  0  0
  -44.6090  -16.9290   66.5050 C   0  0  0  1  0  0  0  0  0  0  0  0
  -43.2450  -16.6910   66.7460 C   0  0  0  1  0  0  0  0  0  0  0  0
  -42.7509  -17.1929   67.5647 H   0  0  0  1  0  0  0  0  0  0  0  0
  -42.5140  -15.8010   65.9270 C   0  0  0  1  0  0  0  0  0  0  0  0
  -41.4684  -15.6253   66.1325 H   0  0  0  1  0  0  0  0  0  0  0  0
  -43.1280  -15.1420   64.8500 C   0  0  0  1  0  0  0  0  0  0  0  0
  -42.5627  -14.4605   64.2316 H   0  0  0  1  0  0  0  0  0  0  0  0
  -44.4780  -15.3790   64.5890 C   0  0  0  1  0  0  0  0  0  0  0  0
  -44.9601  -14.8861   63.7577 H   0  0  0  1  0  0  0  0  0  0  0  0
  -45.2150  -16.2600   65.4070 C   0  0  0  1  0  0  0  0  0  0  0  0
  -46.2603  -16.4297   65.1951 H   0  0  0  1  0  0  0  0  0  0  0  0
  -57.3310  -17.1504   77.2128 O   0  0  0  1  0  0  0  0  0  0  0  0
  1  2  1  0  0  0  0
  1  3  1  0  0  0  0
  1  4  1  0  0  0  0
  1 14  1  0  0  0  0
  4  5  1  0  0  0  0
  4  6  1  0  0  0  0
  6  7  1  0  0  0  0
  6 92  2  0  0  0  0
  7  8  1  0  0  0  0
  7  9  1  0  0  0  0
  7 10  1  0  0  0  0
 10 11  1  0  0  0  0
 10 12  1  0  0  0  0
 10 13  1  0  0  0  0
 14 15  1  0  0  0  0
 14 16  1  0  0  0  0
 14 17  1  0  0  0  0
 17 18  1  0  0  0  0
 17 19  1  0  0  0  0
 17 20  1  0  0  0  0
 20 21  1  0  0  0  0
 20 22  1  0  0  0  0
 20 23  1  0  0  0  0
 23 24  1  0  0  0  0
 23 25  1  0  0  0  0
 25 26  2  0  0  0  0
 25 27  1  0  0  0  0
 27 28  1  0  0  0  0
 27 29  1  0  0  0  0
 29 30  1  0  0  0  0
 29 33  2  0  0  0  0
 30 31  1  0  0  0  0
 30 32  1  0  0  0  0
 33 34  1  0  0  0  0
 34 35  1  0  0  0  0
 34 36  1  0  0  0  0
 34 37  1  0  0  0  0
 37 38  1  0  0  0  0
 37 39  1  0  0  0  0
 37 40  1  0  0  0  0
 40 41  1  0  0  0  0
 40 42  1  0  0  0  0
 40 43  1  0  0  0  0
 43 44  1  0  0  0  0
 43 45  1  0  0  0  0
 43 64  1  0  0  0  0
 45 46  1  0  0  0  0
 45 63  2  0  0  0  0
 46 47  1  0  0  0  0
 46 48  1  0  0  0  0
 48 49  1  0  0  0  0
 48 50  1  0  0  0  0
 48 51  1  0  0  0  0
 51 52  1  0  0  0  0
 51 61  2  0  0  0  0
 52 53  1  0  0  0  0
 52 54  2  0  0  0  0
 54 55  1  0  0  0  0
 54 56  1  0  0  0  0
 56 57  1  0  0  0  0
 56 59  2  0  0  0  0
 57 58  1  0  0  0  0
 59 60  1  0  0  0  0
 59 61  1  0  0  0  0
 61 62  1  0  0  0  0
 64 65  1  0  0  0  0
 64 66  1  0  0  0  0
 66 67  2  0  0  0  0
 66 68  1  0  0  0  0
 68 69  1  0  0  0  0
 68 70  1  0  0  0  0
 68 81  1  0  0  0  0
 70 71  2  0  0  0  0
 70 75  1  0  0  0  0
 71 72  1  0  0  0  0
 71 73  1  0  0  0  0
 73 74  1  0  0  0  0
 73 79  2  0  0  0  0
 75 76  1  0  0  0  0
 75 77  2  0  0  0  0
 77 78  1  0  0  0  0
 77 79  1  0  0  0  0
 79 80  1  0  0  0  0
 81 82  1  0  0  0  0
 81 90  2  0  0  0  0
 82 83  1  0  0  0  0
 82 84  2  0  0  0  0
 84 85  1  0  0  0  0
 84 86  1  0  0  0  0
 86 87  1  0  0  0  0
 86 88  2  0  0  0  0
 88 89  1  0  0  0  0
 88 90  1  0  0  0  0
 90 91  1  0  0  0  0
M  END
> <ConfScore>
-0.63499 

> <SampleByParts>
10 7 6 92 4 1 14 17 20 23 25 26 27 29 30 33

$$$$
NPY1_MK299_12302016.pdb.B
  MOE2014           3D

 92 94  0  0  0  0  0  0  0  0999 V2000
  -54.5368  -16.2722   75.6920 C   0  0  0  1  0  0  0  0  0  0  0  0
  -53.6229  -15.7747   76.0290 H   0  0  0  1  0  0  0  0  0  0  0  0
  -55.3734  -15.5808   75.8376 H   0  0  0  1  0  0  0  0  0  0  0  0
  -54.7953  -17.4361   76.5253 N   0  0  0  1  0  0  0  0  0  0  0  0
  -55.6559  -17.9460   76.3648 H   0  0  0  1  0  0  0  0  0  0  0  0
  -54.0279  -17.9650   77.5277 C   0  0  0  1  0  0  0  0  0  0  0  0
  -54.5557  -19.1995   78.2328 C   0  0  0  1  0  0  0  0  0  0  0  0
  -55.1561  -19.7772   77.5217 H   0  0  0  1  0  0  0  0  0  0  0  0
  -55.2011  -18.8896   79.0608 H   0  0  0  1  0  0  0  0  0  0  0  0
  -53.4424  -20.0788   78.7734 C   0  0  0  1  0  0  0  0  0  0  0  0
  -53.8588  -20.9512   79.2864 H   0  0  0  1  0  0  0  0  0  0  0  0
  -52.8214  -19.5270   79.4849 H   0  0  0  1  0  0  0  0  0  0  0  0
  -52.7933  -20.4335   77.9663 H   0  0  0  1  0  0  0  0  0  0  0  0
  -54.4299  -16.6738   74.2263 C   0  0  0  1  0  0  0  0  0  0  0  0
  -55.3768  -17.1310   73.9197 H   0  0  0  1  0  0  0  0  0  0  0  0
  -54.3088  -15.7779   73.6042 H   0  0  0  1  0  0  0  0  0  0  0  0
  -53.2647  -17.6394   73.9660 C   0  0  0  1  0  0  0  0  0  0  0  0
  -52.3275  -17.1753   74.2731 H   0  0  0  1  0  0  0  0  0  0  0  0
  -53.4239  -18.5517   74.5409 H   0  0  0  1  0  0  0  0  0  0  0  0
  -53.1809  -18.0004   72.4537 C   0  0  0  1  0  0  0  0  0  0  0  0
  -53.0234  -17.0932   71.8704 H   0  0  0  1  0  0  0  0  0  0  0  0
  -54.1098  -18.4770   72.1405 H   0  0  0  1  0  0  0  0  0  0  0  0
  -52.0629  -18.9197   72.2406 N   0  0  0  1  0  0  0  0  0  0  0  0
  -51.5213  -19.1654   73.0568 H   0  0  0  1  0  0  0  0  0  0  0  0
  -51.6594  -19.4991   71.0244 C   0  0  0  1  0  0  0  0  0  0  0  0
  -52.2990  -19.2741   69.9833 O   0  0  0  1  0  0  0  0  0  0  0  0
  -50.4600  -20.2550   71.1740 N   0  0  0  1  0  0  0  0  0  0  0  0
  -50.1228  -20.3188   72.1239 H   0  0  0  1  0  0  0  0  0  0  0  0
  -49.6900  -20.9060   70.2590 C   0  0  0  1  0  0  0  0  0  0  0  0
  -50.2570  -20.8250   69.0000 N   0  0  0  1  0  0  0  0  0  0  0  0
  -49.8842  -21.3783   68.2417 H   0  0  0  1  0  0  0  0  0  0  0  0
  -51.0438  -20.2125   68.8389 H   0  0  0  1  0  0  0  0  0  0  0  0
  -48.6290  -21.7900   70.2920 N   0  0  0  1  0  0  0  0  0  0  0  0
  -47.7070  -22.1200   71.3230 C   0  0  0  1  0  0  0  0  0  0  0  0
  -48.1435  -21.9395   72.3054 H   0  0  0  1  0  0  0  0  0  0  0  0
  -47.3992  -23.1630   71.2482 H   0  0  0  1  0  0  0  0  0  0  0  0
  -46.5220  -21.1840   71.0740 C   0  0  0  1  0  0  0  0  0  0  0  0
  -46.9258  -20.2178   70.7716 H   0  0  0  1  0  0  0  0  0  0  0  0
  -45.9869  -21.0750   72.0173 H   0  0  0  1  0  0  0  0  0  0  0  0
  -45.4860  -21.6160   69.9960 C   0  0  0  1  0  0  0  0  0  0  0  0
  -45.9831  -21.6765   69.0278 H   0  0  0  1  0  0  0  0  0  0  0  0
  -45.0840  -22.5942   70.2597 H   0  0  0  1  0  0  0  0  0  0  0  0
  -44.2930  -20.5720   69.9030 C   0  0  0  1  0  0  0  0  0  0  0  0
  -43.4175  -20.9189   69.3542 H   0  0  0  1  0  0  0  0  0  0  0  0
  -43.9430  -20.2610   71.3950 C   0  0  0  1  0  0  0  0  0  0  0  0
  -43.2680  -21.2970   72.0370 N   0  0  0  1  0  0  0  0  0  0  0  0
  -42.9631  -22.0791   71.4753 H   0  0  0  1  0  0  0  0  0  0  0  0
  -42.9760  -21.3290   73.4430 C   0  0  0  1  0  0  0  0  0  0  0  0
  -42.1220  -21.9707   73.6596 H   0  0  0  1  0  0  0  0  0  0  0  0
  -42.7882  -20.3295   73.8353 H   0  0  0  1  0  0  0  0  0  0  0  0
  -44.2750  -21.9160   74.0000 C   0  0  0  1  0  0  0  0  0  0  0  0
  -44.6710  -23.2570   73.6750 C   0  0  0  1  0  0  0  0  0  0  0  0
  -44.0095  -23.8778   73.0890 H   0  0  0  1  0  0  0  0  0  0  0  0
  -45.9140  -23.7810   74.1090 C   0  0  0  1  0  0  0  0  0  0  0  0
  -46.2001  -24.7938   73.8667 H   0  0  0  1  0  0  0  0  0  0  0  0
  -46.7720  -22.9500   74.8660 C   0  0  0  1  0  0  0  0  0  0  0  0
  -48.0010  -23.3600   75.3380 O   0  0  0  1  0  0  0  0  0  0  0  0
  -48.4837  -22.6994   75.8401 H   0  0  0  1  0  0  0  0  0  0  0  0
  -46.3920  -21.6040   75.1900 C   0  0  0  1  0  0  0  0  0  0  0  0
  -47.0635  -20.9775   75.7583 H   0  0  0  1  0  0  0  0  0  0  0  0
  -45.1510  -21.0990   74.7710 C   0  0  0  1  0  0  0  0  0  0  0  0
  -44.8607  -20.0922   75.0329 H   0  0  0  1  0  0  0  0  0  0  0  0
  -44.2390  -19.1780   71.9410 O   0  0  0  1  0  0  0  0  0  0  0  0
  -44.8310  -19.3810   69.2410 N   0  0  0  1  0  0  0  0  0  0  0  0
  -45.3418  -18.7187   69.8071 H   0  0  0  1  0  0  0  0  0  0  0  0
  -44.6870  -19.1000   67.8890 C   0  0  0  1  0  0  0  0  0  0  0  0
  -44.0790  -19.8190   67.1090 O   0  0  0  1  0  0  0  0  0  0  0  0
  -45.4070  -17.8340   67.4640 C   0  0  0  1  0  0  0  0  0  0  0  0
  -45.5191  -17.1446   68.3008 H   0  0  0  1  0  0  0  0  0  0  0  0
  -46.7920  -18.2790   66.9880 C   0  0  0  1  0  0  0  0  0  0  0  0
  -47.9390  -17.9030   67.6910 C   0  0  0  1  0  0  0  0  0  0  0  0
  -47.8686  -17.2440   68.5437 H   0  0  0  1  0  0  0  0  0  0  0  0
  -49.1880  -18.3970   67.2700 C   0  0  0  1  0  0  0  0  0  0  0  0
  -50.0790  -18.1102   67.8088 H   0  0  0  1  0  0  0  0  0  0  0  0
  -46.9160  -19.1540   65.8530 C   0  0  0  1  0  0  0  0  0  0  0  0
  -46.0285  -19.4383   65.3071 H   0  0  0  1  0  0  0  0  0  0  0  0
  -48.1600  -19.6460   65.4390 C   0  0  0  1  0  0  0  0  0  0  0  0
  -48.2363  -20.3059   64.5875 H   0  0  0  1  0  0  0  0  0  0  0  0
  -49.3010  -19.2650   66.1510 C   0  0  0  1  0  0  0  0  0  0  0  0
  -50.2712  -19.6315   65.8496 H   0  0  0  1  0  0  0  0  0  0  0  0
  -44.6090  -16.9290   66.5050 C   0  0  0  1  0  0  0  0  0  0  0  0
  -43.2450  -16.6910   66.7460 C   0  0  0  1  0  0  0  0  0  0  0  0
  -42.7509  -17.1929   67.5647 H   0  0  0  1  0  0  0  0  0  0  0  0
  -42.5140  -15.8010   65.9270 C   0  0  0  1  0  0  0  0  0  0  0  0
  -41.4684  -15.6253   66.1325 H   0  0  0  1  0  0  0  0  0  0  0  0
  -43.1280  -15.1420   64.8500 C   0  0  0  1  0  0  0  0  0  0  0  0
  -42.5627  -14.4605   64.2316 H   0  0  0  1  0  0  0  0  0  0  0  0
  -44.4780  -15.3790   64.5890 C   0  0  0  1  0  0  0  0  0  0  0  0
  -44.9601  -14.8861   63.7577 H   0  0  0  1  0  0  0  0  0  0  0  0
  -45.2150  -16.2600   65.4070 C   0  0  0  1  0  0  0  0  0  0  0  0
  -46.2603  -16.4297   65.1951 H   0  0  0  1  0  0  0  0  0  0  0  0
  -52.9531  -17.4342   77.8043 O   0  0  0  1  0  0  0  0  0  0  0  0
  1  2  1  0  0  0  0
  1  3  1  0  0  0  0
  1  4  1  0  0  0  0
  1 14  1  0  0  0  0
  4  5  1  0  0  0  0
  4  6  1  0  0  0  0
  6  7  1  0  0  0  0
  6 92  2  0  0  0  0
  7  8  1  0  0  0  0
  7  9  1  0  0  0  0
  7 10  1  0  0  0  0
 10 11  1  0  0  0  0
 10 12  1  0  0  0  0
 10 13  1  0  0  0  0
 14 15  1  0  0  0  0
 14 16  1  0  0  0  0
 14 17  1  0  0  0  0
 17 18  1  0  0  0  0
 17 19  1  0  0  0  0
 17 20  1  0  0  0  0
 20 21  1  0  0  0  0
 20 22  1  0  0  0  0
 20 23  1  0  0  0  0
 23 24  1  0  0  0  0
 23 25  1  0  0  0  0
 25 26  2  0  0  0  0
 25 27  1  0  0  0  0
 27 28  1  0  0  0  0
 27 29  1  0  0  0  0
 29 30  1  0  0  0  0
 29 33  2  0  0  0  0
 30 31  1  0  0  0  0
 30 32  1  0  0  0  0
 33 34  1  0  0  0  0
 34 35  1  0  0  0  0
 34 36  1  0  0  0  0
 34 37  1  0  0  0  0
 37 38  1  0  0  0  0
 37 39  1  0  0  0  0
 37 40  1  0  0  0  0
 40 41  1  0  0  0  0
 40 42  1  0  0  0  0
 40 43  1  0  0  0  0
 43 44  1  0  0  0  0
 43 45  1  0  0  0  0
 43 64  1  0  0  0  0
 45 46  1  0  0  0  0
 45 63  2  0  0  0  0
 46 47  1  0  0  0  0
 46 48  1  0  0  0  0
 48 49  1  0  0  0  0
 48 50  1  0  0  0  0
 48 51  1  0  0  0  0
 51 52  1  0  0  0  0
 51 61  2  0  0  0  0
 52 53  1  0  0  0  0
 52 54  2  0  0  0  0
 54 55  1  0  0  0  0
 54 56  1  0  0  0  0
 56 57  1  0  0  0  0
 56 59  2  0  0  0  0
 57 58  1  0  0  0  0
 59 60  1  0  0  0  0
 59 61  1  0  0  0  0
 61 62  1  0  0  0  0
 64 65  1  0  0  0  0
 64 66  1  0  0  0  0
 66 67  2  0  0  0  0
 66 68  1  0  0  0  0
 68 69  1  0  0  0  0
 68 70  1  0  0  0  0
 68 81  1  0  0  0  0
 70 71  2  0  0  0  0
 70 75  1  0  0  0  0
 71 72  1  0  0  0  0
 71 73  1  0  0  0  0
 73 74  1  0  0  0  0
 73 79  2  0  0  0  0
 75 76  1  0  0  0  0
 75 77  2  0  0  0  0
 77 78  1  0  0  0  0
 77 79  1  0  0  0  0
 79 80  1  0  0  0  0
 81 82  1  0  0  0  0
 81 90  2  0  0  0  0
 82 83  1  0  0  0  0
 82 84  2  0  0  0  0
 84 85  1  0  0  0  0
 84 86  1  0  0  0  0
 86 87  1  0  0  0  0
 86 88  2  0  0  0  0
 88 89  1  0  0  0  0
 88 90  1  0  0  0  0
 90 91  1  0  0  0  0
M  END
> <ConfScore>
-0.634833 

> <SampleByParts>
10 7 6 92 4 1 14 17 20 23 25 26 27 29 30 33

$$$$
NPY1_MK299_12302016.pdb.B
  MOE2014           3D

 92 94  0  0  0  0  0  0  0  0999 V2000
  -54.5173  -16.2389   75.6808 C   0  0  0  1  0  0  0  0  0  0  0  0
  -53.6179  -15.6924   75.9785 H   0  0  0  1  0  0  0  0  0  0  0  0
  -55.3800  -15.5820   75.8335 H   0  0  0  1  0  0  0  0  0  0  0  0
  -54.6992  -17.3909   76.5502 N   0  0  0  1  0  0  0  0  0  0  0  0
  -55.5246  -17.9607   76.4071 H   0  0  0  1  0  0  0  0  0  0  0  0
  -53.8991  -17.8372   77.5669 C   0  0  0  1  0  0  0  0  0  0  0  0
  -54.3569  -19.0677   78.3260 C   0  0  0  1  0  0  0  0  0  0  0  0
  -54.4658  -19.8947   77.6161 H   0  0  0  1  0  0  0  0  0  0  0  0
  -55.3335  -18.8664   78.7772 H   0  0  0  1  0  0  0  0  0  0  0  0
  -53.3806  -19.4730   79.4158 C   0  0  0  1  0  0  0  0  0  0  0  0
  -53.7484  -20.3541   79.9505 H   0  0  0  1  0  0  0  0  0  0  0  0
  -53.2473  -18.6639   80.1395 H   0  0  0  1  0  0  0  0  0  0  0  0
  -52.3983  -19.7125   78.9957 H   0  0  0  1  0  0  0  0  0  0  0  0
  -54.4335  -16.6737   74.2231 C   0  0  0  1  0  0  0  0  0  0  0  0
  -55.3739  -17.1647   73.9507 H   0  0  0  1  0  0  0  0  0  0  0  0
  -54.3527  -15.7905   73.5767 H   0  0  0  1  0  0  0  0  0  0  0  0
  -53.2476  -17.6125   73.9581 C   0  0  0  1  0  0  0  0  0  0  0  0
  -52.3171  -17.1148   74.2311 H   0  0  0  1  0  0  0  0  0  0  0  0
  -53.3671  -18.5143   74.5587 H   0  0  0  1  0  0  0  0  0  0  0  0
  -53.1891  -18.0085   72.4534 C   0  0  0  1  0  0  0  0  0  0  0  0
  -53.0713  -17.1120   71.8447 H   0  0  0  1  0  0  0  0  0  0  0  0
  -54.1111  -18.5185   72.1744 H   0  0  0  1  0  0  0  0  0  0  0  0
  -52.0506  -18.9012   72.2356 N   0  0  0  1  0  0  0  0  0  0  0  0
  -51.4831  -19.1112   73.0442 H   0  0  0  1  0  0  0  0  0  0  0  0
  -51.6594  -19.4991   71.0244 C   0  0  0  1  0  0  0  0  0  0  0  0
  -52.3082  -19.2882   69.9860 O   0  0  0  1  0  0  0  0  0  0  0  0
  -50.4600  -20.2550   71.1740 N   0  0  0  1  0  0  0  0  0  0  0  0
  -50.1228  -20.3188   72.1239 H   0  0  0  1  0  0  0  0  0  0  0  0
  -49.6900  -20.9060   70.2590 C   0  0  0  1  0  0  0  0  0  0  0  0
  -50.2570  -20.8250   69.0000 N   0  0  0  1  0  0  0  0  0  0  0  0
  -49.8842  -21.3783   68.2417 H   0  0  0  1  0  0  0  0  0  0  0  0
  -51.0438  -20.2125   68.8389 H   0  0  0  1  0  0  0  0  0  0  0  0
  -48.6290  -21.7900   70.2920 N   0  0  0  1  0  0  0  0  0  0  0  0
  -47.7070  -22.1200   71.3230 C   0  0  0  1  0  0  0  0  0  0  0  0
  -48.1435  -21.9395   72.3054 H   0  0  0  1  0  0  0  0  0  0  0  0
  -47.3992  -23.1630   71.2482 H   0  0  0  1  0  0  0  0  0  0  0  0
  -46.5220  -21.1840   71.0740 C   0  0  0  1  0  0  0  0  0  0  0  0
  -46.9258  -20.2178   70.7716 H   0  0  0  1  0  0  0  0  0  0  0  0
  -45.9869  -21.0750   72.0173 H   0  0  0  1  0  0  0  0  0  0  0  0
  -45.4860  -21.6160   69.9960 C   0  0  0  1  0  0  0  0  0  0  0  0
  -45.9831  -21.6765   69.0278 H   0  0  0  1  0  0  0  0  0  0  0  0
  -45.0840  -22.5942   70.2597 H   0  0  0  1  0  0  0  0  0  0  0  0
  -44.2930  -20.5720   69.9030 C   0  0  0  1  0  0  0  0  0  0  0  0
  -43.4175  -20.9189   69.3542 H   0  0  0  1  0  0  0  0  0  0  0  0
  -43.9430  -20.2610   71.3950 C   0  0  0  1  0  0  0  0  0  0  0  0
  -43.2680  -21.2970   72.0370 N   0  0  0  1  0  0  0  0  0  0  0  0
  -42.9631  -22.0791   71.4753 H   0  0  0  1  0  0  0  0  0  0  0  0
  -42.9760  -21.3290   73.4430 C   0  0  0  1  0  0  0  0  0  0  0  0
  -42.1220  -21.9707   73.6596 H   0  0  0  1  0  0  0  0  0  0  0  0
  -42.7882  -20.3295   73.8353 H   0  0  0  1  0  0  0  0  0  0  0  0
  -44.2750  -21.9160   74.0000 C   0  0  0  1  0  0  0  0  0  0  0  0
  -44.6710  -23.2570   73.6750 C   0  0  0  1  0  0  0  0  0  0  0  0
  -44.0095  -23.8778   73.0890 H   0  0  0  1  0  0  0  0  0  0  0  0
  -45.9140  -23.7810   74.1090 C   0  0  0  1  0  0  0  0  0  0  0  0
  -46.2001  -24.7938   73.8667 H   0  0  0  1  0  0  0  0  0  0  0  0
  -46.7720  -22.9500   74.8660 C   0  0  0  1  0  0  0  0  0  0  0  0
  -48.0010  -23.3600   75.3380 O   0  0  0  1  0  0  0  0  0  0  0  0
  -48.4837  -22.6994   75.8401 H   0  0  0  1  0  0  0  0  0  0  0  0
  -46.3920  -21.6040   75.1900 C   0  0  0  1  0  0  0  0  0  0  0  0
  -47.0635  -20.9775   75.7583 H   0  0  0  1  0  0  0  0  0  0  0  0
  -45.1510  -21.0990   74.7710 C   0  0  0  1  0  0  0  0  0  0  0  0
  -44.8607  -20.0922   75.0329 H   0  0  0  1  0  0  0  0  0  0  0  0
  -44.2390  -19.1780   71.9410 O   0  0  0  1  0  0  0  0  0  0  0  0
  -44.8310  -19.3810   69.2410 N   0  0  0  1  0  0  0  0  0  0  0  0
  -45.3418  -18.7187   69.8071 H   0  0  0  1  0  0  0  0  0  0  0  0
  -44.6870  -19.1000   67.8890 C   0  0  0  1  0  0  0  0  0  0  0  0
  -44.0790  -19.8190   67.1090 O   0  0  0  1  0  0  0  0  0  0  0  0
  -45.4070  -17.8340   67.4640 C   0  0  0  1  0  0  0  0  0  0  0  0
  -45.5191  -17.1446   68.3008 H   0  0  0  1  0  0  0  0  0  0  0  0
  -46.7920  -18.2790   66.9880 C   0  0  0  1  0  0  0  0  0  0  0  0
  -47.9390  -17.9030   67.6910 C   0  0  0  1  0  0  0  0  0  0  0  0
  -47.8686  -17.2440   68.5437 H   0  0  0  1  0  0  0  0  0  0  0  0
  -49.1880  -18.3970   67.2700 C   0  0  0  1  0  0  0  0  0  0  0  0
  -50.0790  -18.1102   67.8088 H   0  0  0  1  0  0  0  0  0  0  0  0
  -46.9160  -19.1540   65.8530 C   0  0  0  1  0  0  0  0  0  0  0  0
  -46.0285  -19.4383   65.3071 H   0  0  0  1  0  0  0  0  0  0  0  0
  -48.1600  -19.6460   65.4390 C   0  0  0  1  0  0  0  0  0  0  0  0
  -48.2363  -20.3059   64.5875 H   0  0  0  1  0  0  0  0  0  0  0  0
  -49.3010  -19.2650   66.1510 C   0  0  0  1  0  0  0  0  0  0  0  0
  -50.2712  -19.6315   65.8496 H   0  0  0  1  0  0  0  0  0  0  0  0
  -44.6090  -16.9290   66.5050 C   0  0  0  1  0  0  0  0  0  0  0  0
  -43.2450  -16.6910   66.7460 C   0  0  0  1  0  0  0  0  0  0  0  0
  -42.7509  -17.1929   67.5647 H   0  0  0  1  0  0  0  0  0  0  0  0
  -42.5140  -15.8010   65.9270 C   0  0  0  1  0  0  0  0  0  0  0  0
  -41.4684  -15.6253   66.1325 H   0  0  0  1  0  0  0  0  0  0  0  0
  -43.1280  -15.1420   64.8500 C   0  0  0  1  0  0  0  0  0  0  0  0
  -42.5627  -14.4605   64.2316 H   0  0  0  1  0  0  0  0  0  0  0  0
  -44.4780  -15.3790   64.5890 C   0  0  0  1  0  0  0  0  0  0  0  0
  -44.9601  -14.8861   63.7577 H   0  0  0  1  0  0  0  0  0  0  0  0
  -45.2150  -16.2600   65.4070 C   0  0  0  1  0  0  0  0  0  0  0  0
  -46.2603  -16.4297   65.1951 H   0  0  0  1  0  0  0  0  0  0  0  0
  -52.8521  -17.2399   77.8129 O   0  0  0  1  0  0  0  0  0  0  0  0
  1  2  1  0  0  0  0
  1  3  1  0  0  0  0
  1  4  1  0  0  0  0
  1 14  1  0  0  0  0
  4  5  1  0  0  0  0
  4  6  1  0  0  0  0
  6  7  1  0  0  0  0
  6 92  2  0  0  0  0
  7  8  1  0  0  0  0
  7  9  1  0  0  0  0
  7 10  1  0  0  0  0
 10 11  1  0  0  0  0
 10 12  1  0  0  0  0
 10 13  1  0  0  0  0
 14 15  1  0  0  0  0
 14 16  1  0  0  0  0
 14 17  1  0  0  0  0
 17 18  1  0  0  0  0
 17 19  1  0  0  0  0
 17 20  1  0  0  0  0
 20 21  1  0  0  0  0
 20 22  1  0  0  0  0
 20 23  1  0  0  0  0
 23 24  1  0  0  0  0
 23 25  1  0  0  0  0
 25 26  2  0  0  0  0
 25 27  1  0  0  0  0
 27 28  1  0  0  0  0
 27 29  1  0  0  0  0
 29 30  1  0  0  0  0
 29 33  2  0  0  0  0
 30 31  1  0  0  0  0
 30 32  1  0  0  0  0
 33 34  1  0  0  0  0
 34 35  1  0  0  0  0
 34 36  1  0  0  0  0
 34 37  1  0  0  0  0
 37 38  1  0  0  0  0
 37 39  1  0  0  0  0
 37 40  1  0  0  0  0
 40 41  1  0  0  0  0
 40 42  1  0  0  0  0
 40 43  1  0  0  0  0
 43 44  1  0  0  0  0
 43 45  1  0  0  0  0
 43 64  1  0  0  0  0
 45 46  1  0  0  0  0
 45 63  2  0  0  0  0
 46 47  1  0  0  0  0
 46 48  1  0  0  0  0
 48 49  1  0  0  0  0
 48 50  1  0  0  0  0
 48 51  1  0  0  0  0
 51 52  1  0  0  0  0
 51 61  2  0  0  0  0
 52 53  1  0  0  0  0
 52 54  2  0  0  0  0
 54 55  1  0  0  0  0
 54 56  1  0  0  0  0
 56 57  1  0  0  0  0
 56 59  2  0  0  0  0
 57 58  1  0  0  0  0
 59 60  1  0  0  0  0
 59 61  1  0  0  0  0
 61 62  1  0  0  0  0
 64 65  1  0  0  0  0
 64 66  1  0  0  0  0
 66 67  2  0  0  0  0
 66 68  1  0  0  0  0
 68 69  1  0  0  0  0
 68 70  1  0  0  0  0
 68 81  1  0  0  0  0
 70 71  2  0  0  0  0
 70 75  1  0  0  0  0
 71 72  1  0  0  0  0
 71 73  1  0  0  0  0
 73 74  1  0  0  0  0
 73 79  2  0  0  0  0
 75 76  1  0  0  0  0
 75 77  2  0  0  0  0
 77 78  1  0  0  0  0
 77 79  1  0  0  0  0
 79 80  1  0  0  0  0
 81 82  1  0  0  0  0
 81 90  2  0  0  0  0
 82 83  1  0  0  0  0
 82 84  2  0  0  0  0
 84 85  1  0  0  0  0
 84 86  1  0  0  0  0
 86 87  1  0  0  0  0
 86 88  2  0  0  0  0
 88 89  1  0  0  0  0
 88 90  1  0  0  0  0
 90 91  1  0  0  0  0
M  END
> <ConfScore>
-0.633769 

> <SampleByParts>
10 7 6 92 4 1 14 17 20 23 25 26 27 29 30 33

$$$$
