crystal.ligand.pdb
 OpenBabel07101816183D

 84 86  0  0  0  0  0  0  0  0999 V2000
  -56.9842  -22.8473   71.2630 C   0  0  0  1  0  0  0  0  0  0  0  0
  -48.4810  -23.0182   71.5321 N   0  0  0  1  0  0  0  0  0  0  0  0
  -55.5606  -23.3177   71.6656 C   0  0  0  1  0  0  0  0  0  0  0  0
  -42.8387  -17.9673   69.4413 O   0  0  0  1  0  0  0  0  0  0  0  0
  -49.0532  -23.8381   69.4845 N   0  0  0  1  0  0  0  0  0  0  0  0
  -50.6155  -22.5368   70.9297 N   0  0  0  1  0  0  0  0  0  0  0  0
  -53.1114  -23.0371   71.4278 C   0  0  0  1  0  0  0  0  0  0  0  0
  -44.7364  -20.1622   72.1996 O   0  0  0  1  0  0  0  0  0  0  0  0
  -43.8220  -20.3150   71.3810 C   0  0  0  1  0  0  0  0  0  0  0  0
  -42.5115  -20.4064   71.7214 N   0  0  0  1  0  0  0  0  0  0  0  0
  -41.9873  -20.1670   73.0731 C   0  0  0  1  0  0  0  0  0  0  0  0
  -41.5474  -18.8180   73.1053 C   0  0  0  1  0  0  0  0  0  0  0  0
  -42.2422  -17.8832   73.9004 C   0  0  0  1  0  0  0  0  0  0  0  0
  -41.8025  -16.5543   73.9619 C   0  0  0  1  0  0  0  0  0  0  0  0
  -40.6862  -16.1382   73.2073 C   0  0  0  1  0  0  0  0  0  0  0  0
  -40.2483  -14.8381   73.2482 O   0  0  0  1  0  0  0  0  0  0  0  0
  -39.9896  -17.0657   72.4177 C   0  0  0  1  0  0  0  0  0  0  0  0
  -40.3993  -18.4094   72.3849 C   0  0  0  1  0  0  0  0  0  0  0  0
  -44.1210  -20.5520   69.8660 C   0  0  0  1  0  0  0  0  0  0  0  0
  -44.6560  -19.3320   69.1860 N   0  0  0  1  0  0  0  0  0  0  0  0
  -44.0057  -18.1439   69.0917 C   0  0  0  1  0  0  0  0  0  0  0  0
  -44.7860  -16.9903   68.4091 C   0  0  0  1  0  0  0  0  0  0  0  0
  -44.3964  -16.9443   67.0265 C   0  0  0  1  0  0  0  0  0  0  0  0
  -45.3892  -16.9729   66.0359 C   0  0  0  1  0  0  0  0  0  0  0  0
  -45.0260  -16.9781   64.6813 C   0  0  0  1  0  0  0  0  0  0  0  0
  -43.6809  -16.9674   64.2860 C   0  0  0  1  0  0  0  0  0  0  0  0
  -42.6794  -16.9741   65.2534 C   0  0  0  1  0  0  0  0  0  0  0  0
  -43.0431  -16.9746   66.6065 C   0  0  0  1  0  0  0  0  0  0  0  0
  -44.7674  -15.7467   69.1430 C   0  0  0  1  0  0  0  0  0  0  0  0
  -45.1368  -15.6523   70.5036 C   0  0  0  1  0  0  0  0  0  0  0  0
  -45.0863  -14.4340   71.1963 C   0  0  0  1  0  0  0  0  0  0  0  0
  -44.5972  -13.2874   70.5726 C   0  0  0  1  0  0  0  0  0  0  0  0
  -44.1909  -13.3721   69.2401 C   0  0  0  1  0  0  0  0  0  0  0  0
  -44.2609  -14.5851   68.5389 C   0  0  0  1  0  0  0  0  0  0  0  0
  -45.1910  -21.6840   69.7660 C   0  0  0  1  0  0  0  0  0  0  0  0
  -44.6368  -22.9886   70.3892 C   0  0  0  1  0  0  0  0  0  0  0  0
  -45.6751  -23.8700   71.1051 C   0  0  0  1  0  0  0  0  0  0  0  0
  -46.8134  -24.0900   70.1686 N   0  0  0  1  0  0  0  0  0  0  0  0
  -48.0870  -23.6493   70.4035 C   0  0  0  1  0  0  0  0  0  0  0  0
  -49.6445  -22.4253   71.8728 C   0  0  0  1  0  0  0  0  0  0  0  0
  -49.7462  -21.8046   72.9384 O   0  0  0  1  0  0  0  0  0  0  0  0
  -52.0316  -22.0915   70.8783 C   0  0  0  1  0  0  0  0  0  0  0  0
  -54.5032  -22.6305   71.1419 N   0  0  0  1  0  0  0  0  0  0  0  0
  -55.4389  -24.3070   72.4045 O   0  0  0  1  0  0  0  0  0  0  0  0
  -57.6586  -23.7603   70.2380 C   0  0  0  1  0  0  0  0  0  0  0  0
  -57.5928  -22.8171   72.1426 H   0  0  0  1  0  0  0  0  0  0  0  0
  -56.8818  -21.8839   70.8088 H   0  0  0  1  0  0  0  0  0  0  0  0
  -47.7924  -22.9849   72.2349 H   0  0  0  1  0  0  0  0  0  0  0  0
  -48.8317  -24.2377   68.6124 H   0  0  0  1  0  0  0  0  0  0  0  0
  -50.3215  -23.0075   70.1165 H   0  0  0  1  0  0  0  0  0  0  0  0
  -52.8816  -23.8926   71.9571 H   0  0  0  1  0  0  0  0  0  0  0  0
  -41.8693  -20.6494   71.0158 H   0  0  0  1  0  0  0  0  0  0  0  0
  -41.1693  -20.8268   73.2740 H   0  0  0  1  0  0  0  0  0  0  0  0
  -42.7376  -20.3456   73.8148 H   0  0  0  1  0  0  0  0  0  0  0  0
  -43.0735  -18.1776   74.4364 H   0  0  0  1  0  0  0  0  0  0  0  0
  -42.2980  -15.8768   74.5622 H   0  0  0  1  0  0  0  0  0  0  0  0
  -40.6549  -14.2248   73.8284 H   0  0  0  1  0  0  0  0  0  0  0  0
  -39.1760  -16.7608   71.8608 H   0  0  0  1  0  0  0  0  0  0  0  0
  -39.8629  -19.0988   71.8353 H   0  0  0  1  0  0  0  0  0  0  0  0
  -43.2039  -20.8127   69.3804 H   0  0  0  1  0  0  0  0  0  0  0  0
  -45.5484  -19.3954   68.7752 H   0  0  0  1  0  0  0  0  0  0  0  0
  -45.8370  -17.1899   68.4275 H   0  0  0  1  0  0  0  0  0  0  0  0
  -46.3857  -16.9901   66.3036 H   0  0  0  1  0  0  0  0  0  0  0  0
  -45.7644  -16.9901   63.9603 H   0  0  0  1  0  0  0  0  0  0  0  0
  -43.4344  -16.9547   63.2840 H   0  0  0  1  0  0  0  0  0  0  0  0
  -41.6848  -16.9786   64.9781 H   0  0  0  1  0  0  0  0  0  0  0  0
  -42.2998  -16.9977   67.3220 H   0  0  0  1  0  0  0  0  0  0  0  0
  -45.4514  -16.5007   70.9997 H   0  0  0  1  0  0  0  0  0  0  0  0
  -45.4133  -14.3860   72.1739 H   0  0  0  1  0  0  0  0  0  0  0  0
  -44.5368  -12.3940   71.0858 H   0  0  0  1  0  0  0  0  0  0  0  0
  -43.8334  -12.5295   68.7633 H   0  0  0  1  0  0  0  0  0  0  0  0
  -43.9341  -14.6243   67.5608 H   0  0  0  1  0  0  0  0  0  0  0  0
  -45.4307  -21.8559   68.7375 H   0  0  0  1  0  0  0  0  0  0  0  0
  -46.0706  -21.3856   70.2971 H   0  0  0  1  0  0  0  0  0  0  0  0
  -43.8840  -22.7209   71.1008 H   0  0  0  1  0  0  0  0  0  0  0  0
  -44.2674  -23.5723   69.5720 H   0  0  0  1  0  0  0  0  0  0  0  0
  -46.0220  -23.3776   71.9895 H   0  0  0  1  0  0  0  0  0  0  0  0
  -45.2387  -24.8053   71.3872 H   0  0  0  1  0  0  0  0  0  0  0  0
  -46.6389  -24.5806   69.3331 H   0  0  0  1  0  0  0  0  0  0  0  0
  -52.2677  -21.9030   69.8518 H   0  0  0  1  0  0  0  0  0  0  0  0
  -52.0662  -21.2432   71.5296 H   0  0  0  1  0  0  0  0  0  0  0  0
  -57.1007  -23.7449   69.3251 H   0  0  0  1  0  0  0  0  0  0  0  0
  -58.6543  -23.4150   70.0534 H   0  0  0  1  0  0  0  0  0  0  0  0
  -57.6924  -24.7599   70.6185 H   0  0  0  1  0  0  0  0  0  0  0  0
  1  3  1  0  0  0  0
  1 45  1  0  0  0  0
  1 46  1  0  0  0  0
  1 47  1  0  0  0  0
  2 39  1  0  0  0  0
  2 40  1  0  0  0  0
  2 48  1  0  0  0  0
  3 43  1  0  0  0  0
  3 44  2  0  0  0  0
  4 21  2  0  0  0  0
  5 39  2  0  0  0  0
  5 49  1  0  0  0  0
  6 40  1  0  0  0  0
  6 42  1  0  0  0  0
  6 50  1  0  0  0  0
  7 42  1  0  0  0  0
  7 43  2  0  0  0  0
  7 51  1  0  0  0  0
  8  9  2  0  0  0  0
  9 10  1  0  0  0  0
  9 19  1  0  0  0  0
 10 11  1  0  0  0  0
 10 52  1  0  0  0  0
 11 12  1  0  0  0  0
 11 53  1  0  0  0  0
 11 54  1  0  0  0  0
 12 13  1  0  0  0  0
 12 18  2  0  0  0  0
 13 14  2  0  0  0  0
 13 55  1  0  0  0  0
 14 15  1  0  0  0  0
 14 56  1  0  0  0  0
 15 16  1  0  0  0  0
 15 17  2  0  0  0  0
 16 57  1  0  0  0  0
 17 18  1  0  0  0  0
 17 58  1  0  0  0  0
 18 59  1  0  0  0  0
 19 20  1  0  0  0  0
 19 35  1  0  0  0  0
 19 60  1  0  0  0  0
 20 21  1  0  0  0  0
 20 61  1  0  0  0  0
 21 22  1  0  0  0  0
 22 23  1  0  0  0  0
 22 29  1  0  0  0  0
 22 62  1  0  0  0  0
 23 24  2  0  0  0  0
 23 28  1  0  0  0  0
 24 25  1  0  0  0  0
 24 63  1  0  0  0  0
 25 26  2  0  0  0  0
 25 64  1  0  0  0  0
 26 27  1  0  0  0  0
 26 65  1  0  0  0  0
 27 28  2  0  0  0  0
 27 66  1  0  0  0  0
 28 67  1  0  0  0  0
 29 30  2  0  0  0  0
 29 34  1  0  0  0  0
 30 31  1  0  0  0  0
 30 68  1  0  0  0  0
 31 32  2  0  0  0  0
 31 69  1  0  0  0  0
 32 33  1  0  0  0  0
 32 70  1  0  0  0  0
 33 34  2  0  0  0  0
 33 71  1  0  0  0  0
 34 72  1  0  0  0  0
 35 36  1  0  0  0  0
 35 73  1  0  0  0  0
 35 74  1  0  0  0  0
 36 37  1  0  0  0  0
 36 75  1  0  0  0  0
 36 76  1  0  0  0  0
 37 38  1  0  0  0  0
 37 77  1  0  0  0  0
 37 78  1  0  0  0  0
 38 39  1  0  0  0  0
 38 79  1  0  0  0  0
 40 41  2  0  0  0  0
 42 80  1  0  0  0  0
 42 81  1  0  0  0  0
 45 82  1  0  0  0  0
 45 83  1  0  0  0  0
 45 84  1  0  0  0  0
M  END
> <ConfScore>
0.288101 

$$$$
crystal.ligand.pdb
 OpenBabel07101816183D

 84 86  0  0  0  0  0  0  0  0999 V2000
  -55.0286  -24.1408   62.2090 C   0  0  0  1  0  0  0  0  0  0  0  0
  -50.1731  -21.0397   67.8881 N   0  0  0  1  0  0  0  0  0  0  0  0
  -54.0331  -23.6600   63.2987 C   0  0  0  1  0  0  0  0  0  0  0  0
  -45.7182  -18.3833   70.9754 O   0  0  0  1  0  0  0  0  0  0  0  0
  -48.7778  -21.6982   66.2112 N   0  0  0  1  0  0  0  0  0  0  0  0
  -51.2409  -22.1984   66.2547 N   0  0  0  1  0  0  0  0  0  0  0  0
  -51.7377  -23.7361   64.2257 C   0  0  0  1  0  0  0  0  0  0  0  0
  -43.2619  -19.2836   71.7712 O   0  0  0  1  0  0  0  0  0  0  0  0
  -43.8220  -20.3150   71.3810 C   0  0  0  1  0  0  0  0  0  0  0  0
  -44.3232  -21.2629   72.2129 N   0  0  0  1  0  0  0  0  0  0  0  0
  -44.2940  -21.1780   73.6796 C   0  0  0  1  0  0  0  0  0  0  0  0
  -45.5751  -20.7215   74.0858 C   0  0  0  1  0  0  0  0  0  0  0  0
  -45.9709  -19.4047   73.7726 C   0  0  0  1  0  0  0  0  0  0  0  0
  -47.2429  -18.9502   74.1445 C   0  0  0  1  0  0  0  0  0  0  0  0
  -48.1193  -19.7929   74.8591 C   0  0  0  1  0  0  0  0  0  0  0  0
  -49.3649  -19.3602   75.2397 O   0  0  0  1  0  0  0  0  0  0  0  0
  -47.7311  -21.1051   75.1696 C   0  0  0  1  0  0  0  0  0  0  0  0
  -46.4734  -21.5814   74.7623 C   0  0  0  1  0  0  0  0  0  0  0  0
  -44.1210  -20.5520   69.8660 C   0  0  0  1  0  0  0  0  0  0  0  0
  -44.6560  -19.3320   69.1860 N   0  0  0  1  0  0  0  0  0  0  0  0
  -45.3850  -18.3592   69.7906 C   0  0  0  1  0  0  0  0  0  0  0  0
  -45.7161  -17.1158   68.9248 C   0  0  0  1  0  0  0  0  0  0  0  0
  -44.5156  -16.7119   68.2457 C   0  0  0  1  0  0  0  0  0  0  0  0
  -44.5410  -16.5484   66.8527 C   0  0  0  1  0  0  0  0  0  0  0  0
  -43.3674  -16.2024   66.1672 C   0  0  0  1  0  0  0  0  0  0  0  0
  -42.1522  -16.0251   66.8437 C   0  0  0  1  0  0  0  0  0  0  0  0
  -42.0975  -16.2167   68.2217 C   0  0  0  1  0  0  0  0  0  0  0  0
  -43.2692  -16.5678   68.9050 C   0  0  0  1  0  0  0  0  0  0  0  0
  -46.4594  -16.0907   69.6194 C   0  0  0  1  0  0  0  0  0  0  0  0
  -47.6601  -16.3522   70.3168 C   0  0  0  1  0  0  0  0  0  0  0  0
  -48.3477  -15.3399   71.0018 C   0  0  0  1  0  0  0  0  0  0  0  0
  -47.8205  -14.0516   71.0720 C   0  0  0  1  0  0  0  0  0  0  0  0
  -46.6146  -13.7857   70.4215 C   0  0  0  1  0  0  0  0  0  0  0  0
  -45.9362  -14.7918   69.7175 C   0  0  0  1  0  0  0  0  0  0  0  0
  -45.1910  -21.6840   69.7660 C   0  0  0  1  0  0  0  0  0  0  0  0
  -45.5652  -21.9250   68.2830 C   0  0  0  1  0  0  0  0  0  0  0  0
  -46.4156  -20.8215   67.6300 C   0  0  0  1  0  0  0  0  0  0  0  0
  -47.7909  -20.9061   68.1978 N   0  0  0  1  0  0  0  0  0  0  0  0
  -48.9022  -21.2021   67.4571 C   0  0  0  1  0  0  0  0  0  0  0  0
  -51.3557  -21.4414   67.3765 C   0  0  0  1  0  0  0  0  0  0  0  0
  -52.4202  -21.0800   67.8933 O   0  0  0  1  0  0  0  0  0  0  0  0
  -52.2388  -22.7841   65.3232 C   0  0  0  1  0  0  0  0  0  0  0  0
  -52.7437  -24.1000   63.2061 N   0  0  0  1  0  0  0  0  0  0  0  0
  -54.4481  -22.9377   64.2183 O   0  0  0  1  0  0  0  0  0  0  0  0
  -54.6278  -23.7234   60.7933 C   0  0  0  1  0  0  0  0  0  0  0  0
  -55.0816  -25.2089   62.2455 H   0  0  0  1  0  0  0  0  0  0  0  0
  -55.9722  -23.6817   62.4184 H   0  0  0  1  0  0  0  0  0  0  0  0
  -50.2504  -20.5356   68.7302 H   0  0  0  1  0  0  0  0  0  0  0  0
  -47.8858  -21.7900   65.8048 H   0  0  0  1  0  0  0  0  0  0  0  0
  -50.3088  -22.3993   66.0096 H   0  0  0  1  0  0  0  0  0  0  0  0
  -50.7703  -24.0948   64.2025 H   0  0  0  1  0  0  0  0  0  0  0  0
  -44.7336  -22.0603   71.8068 H   0  0  0  1  0  0  0  0  0  0  0  0
  -43.5394  -20.4879   73.9944 H   0  0  0  1  0  0  0  0  0  0  0  0
  -44.0670  -22.1281   74.1163 H   0  0  0  1  0  0  0  0  0  0  0  0
  -45.3244  -18.7766   73.2701 H   0  0  0  1  0  0  0  0  0  0  0  0
  -47.5400  -17.9941   73.8943 H   0  0  0  1  0  0  0  0  0  0  0  0
  -49.6684  -18.5144   74.9742 H   0  0  0  1  0  0  0  0  0  0  0  0
  -48.3695  -21.7205   75.6974 H   0  0  0  1  0  0  0  0  0  0  0  0
  -46.2045  -22.5587   74.9564 H   0  0  0  1  0  0  0  0  0  0  0  0
  -43.2039  -20.8127   69.3804 H   0  0  0  1  0  0  0  0  0  0  0  0
  -44.4648  -19.2262   68.2261 H   0  0  0  1  0  0  0  0  0  0  0  0
  -46.4292  -17.3681   68.1681 H   0  0  0  1  0  0  0  0  0  0  0  0
  -45.4224  -16.6825   66.3328 H   0  0  0  1  0  0  0  0  0  0  0  0
  -43.3989  -16.0757   65.1435 H   0  0  0  1  0  0  0  0  0  0  0  0
  -41.3031  -15.7543   66.3232 H   0  0  0  1  0  0  0  0  0  0  0  0
  -41.2078  -16.1018   68.7320 H   0  0  0  1  0  0  0  0  0  0  0  0
  -43.2232  -16.7269   69.9236 H   0  0  0  1  0  0  0  0  0  0  0  0
  -48.0403  -17.3115   70.3224 H   0  0  0  1  0  0  0  0  0  0  0  0
  -49.2498  -15.5502   71.4568 H   0  0  0  1  0  0  0  0  0  0  0  0
  -48.3117  -13.3094   71.5945 H   0  0  0  1  0  0  0  0  0  0  0  0
  -46.2160  -12.8345   70.4588 H   0  0  0  1  0  0  0  0  0  0  0  0
  -45.0357  -14.5729   69.2633 H   0  0  0  1  0  0  0  0  0  0  0  0
  -46.0656  -21.3947   70.3102 H   0  0  0  1  0  0  0  0  0  0  0  0
  -44.7899  -22.5857   70.1794 H   0  0  0  1  0  0  0  0  0  0  0  0
  -46.1136  -22.8420   68.2256 H   0  0  0  1  0  0  0  0  0  0  0  0
  -44.6408  -21.9429   67.7444 H   0  0  0  1  0  0  0  0  0  0  0  0
  -46.4501  -20.9680   66.5706 H   0  0  0  1  0  0  0  0  0  0  0  0
  -45.9905  -19.8591   67.8251 H   0  0  0  1  0  0  0  0  0  0  0  0
  -47.9063  -20.7394   69.1613 H   0  0  0  1  0  0  0  0  0  0  0  0
  -52.7332  -21.9701   64.8354 H   0  0  0  1  0  0  0  0  0  0  0  0
  -52.8539  -23.3990   65.9465 H   0  0  0  1  0  0  0  0  0  0  0  0
  -55.3833  -24.0345   60.1023 H   0  0  0  1  0  0  0  0  0  0  0  0
  -53.6972  -24.1843   60.5356 H   0  0  0  1  0  0  0  0  0  0  0  0
  -54.5226  -22.6594   60.7515 H   0  0  0  1  0  0  0  0  0  0  0  0
  1  3  1  0  0  0  0
  1 45  1  0  0  0  0
  1 46  1  0  0  0  0
  1 47  1  0  0  0  0
  2 39  1  0  0  0  0
  2 40  1  0  0  0  0
  2 48  1  0  0  0  0
  3 43  1  0  0  0  0
  3 44  2  0  0  0  0
  4 21  2  0  0  0  0
  5 39  2  0  0  0  0
  5 49  1  0  0  0  0
  6 40  1  0  0  0  0
  6 42  1  0  0  0  0
  6 50  1  0  0  0  0
  7 42  1  0  0  0  0
  7 43  2  0  0  0  0
  7 51  1  0  0  0  0
  8  9  2  0  0  0  0
  9 10  1  0  0  0  0
  9 19  1  0  0  0  0
 10 11  1  0  0  0  0
 10 52  1  0  0  0  0
 11 12  1  0  0  0  0
 11 53  1  0  0  0  0
 11 54  1  0  0  0  0
 12 13  1  0  0  0  0
 12 18  2  0  0  0  0
 13 14  2  0  0  0  0
 13 55  1  0  0  0  0
 14 15  1  0  0  0  0
 14 56  1  0  0  0  0
 15 16  1  0  0  0  0
 15 17  2  0  0  0  0
 16 57  1  0  0  0  0
 17 18  1  0  0  0  0
 17 58  1  0  0  0  0
 18 59  1  0  0  0  0
 19 20  1  0  0  0  0
 19 35  1  0  0  0  0
 19 60  1  0  0  0  0
 20 21  1  0  0  0  0
 20 61  1  0  0  0  0
 21 22  1  0  0  0  0
 22 23  1  0  0  0  0
 22 29  1  0  0  0  0
 22 62  1  0  0  0  0
 23 24  2  0  0  0  0
 23 28  1  0  0  0  0
 24 25  1  0  0  0  0
 24 63  1  0  0  0  0
 25 26  2  0  0  0  0
 25 64  1  0  0  0  0
 26 27  1  0  0  0  0
 26 65  1  0  0  0  0
 27 28  2  0  0  0  0
 27 66  1  0  0  0  0
 28 67  1  0  0  0  0
 29 30  2  0  0  0  0
 29 34  1  0  0  0  0
 30 31  1  0  0  0  0
 30 68  1  0  0  0  0
 31 32  2  0  0  0  0
 31 69  1  0  0  0  0
 32 33  1  0  0  0  0
 32 70  1  0  0  0  0
 33 34  2  0  0  0  0
 33 71  1  0  0  0  0
 34 72  1  0  0  0  0
 35 36  1  0  0  0  0
 35 73  1  0  0  0  0
 35 74  1  0  0  0  0
 36 37  1  0  0  0  0
 36 75  1  0  0  0  0
 36 76  1  0  0  0  0
 37 38  1  0  0  0  0
 37 77  1  0  0  0  0
 37 78  1  0  0  0  0
 38 39  1  0  0  0  0
 38 79  1  0  0  0  0
 40 41  2  0  0  0  0
 42 80  1  0  0  0  0
 42 81  1  0  0  0  0
 45 82  1  0  0  0  0
 45 83  1  0  0  0  0
 45 84  1  0  0  0  0
M  END
> <ConfScore>
0.470311 

$$$$
crystal.ligand.pdb
 OpenBabel07101816183D

 84 86  0  0  0  0  0  0  0  0999 V2000
  -48.5900  -18.4640   76.7280 C   0  0  0  1  0  0  0  0  0  0  0  0
  -50.6070  -20.2480   71.3240 N   0  0  0  1  0  0  0  0  0  0  0  0
  -50.0710  -18.9290   76.7130 C   0  0  0  1  0  0  0  0  0  0  0  0
  -44.1610  -19.9010   67.0270 O   0  0  0  1  0  0  0  0  0  0  0  0
  -49.5650  -20.7960   69.3730 N   0  0  0  1  0  0  0  0  0  0  0  0
  -52.0080  -19.3080   72.8420 N   0  0  0  1  0  0  0  0  0  0  0  0
  -52.1700  -19.2110   75.4290 C   0  0  0  1  0  0  0  0  0  0  0  0
  -44.1600  -19.2680   71.9460 O   0  0  0  1  0  0  0  0  0  0  0  0
  -43.8220  -20.3150   71.3810 C   0  0  0  1  0  0  0  0  0  0  0  0
  -43.2790  -21.3790   72.0250 N   0  0  0  1  0  0  0  0  0  0  0  0
  -43.1540  -21.4890   73.4850 C   0  0  0  1  0  0  0  0  0  0  0  0
  -44.4020  -21.9650   73.9650 C   0  0  0  1  0  0  0  0  0  0  0  0
  -45.2310  -21.1010   74.7100 C   0  0  0  1  0  0  0  0  0  0  0  0
  -46.4770  -21.5500   75.1670 C   0  0  0  1  0  0  0  0  0  0  0  0
  -46.8940  -22.8730   74.9130 C   0  0  0  1  0  0  0  0  0  0  0  0
  -48.1070  -23.3320   75.3620 O   0  0  0  1  0  0  0  0  0  0  0  0
  -46.0740  -23.7350   74.1690 C   0  0  0  1  0  0  0  0  0  0  0  0
  -44.8420  -23.2780   73.6710 C   0  0  0  1  0  0  0  0  0  0  0  0
  -44.1210  -20.5520   69.8660 C   0  0  0  1  0  0  0  0  0  0  0  0
  -44.6560  -19.3320   69.1860 N   0  0  0  1  0  0  0  0  0  0  0  0
  -44.6470  -19.1200   67.8450 C   0  0  0  1  0  0  0  0  0  0  0  0
  -45.3880  -17.8510   67.3490 C   0  0  0  1  0  0  0  0  0  0  0  0
  -46.6670  -18.2540   66.8320 C   0  0  0  1  0  0  0  0  0  0  0  0
  -47.8190  -18.0120   67.5950 C   0  0  0  1  0  0  0  0  0  0  0  0
  -49.0700  -18.4420   67.1290 C   0  0  0  1  0  0  0  0  0  0  0  0
  -49.2000  -19.1260   65.9120 C   0  0  0  1  0  0  0  0  0  0  0  0
  -48.0650  -19.4070   65.1560 C   0  0  0  1  0  0  0  0  0  0  0  0
  -46.8150  -18.9820   65.6250 C   0  0  0  1  0  0  0  0  0  0  0  0
  -44.5850  -16.9810   66.5220 C   0  0  0  1  0  0  0  0  0  0  0  0
  -45.1350  -16.1540   65.5170 C   0  0  0  1  0  0  0  0  0  0  0  0
  -44.3320  -15.3020   64.7450 C   0  0  0  1  0  0  0  0  0  0  0  0
  -42.9660  -15.1960   65.0010 C   0  0  0  1  0  0  0  0  0  0  0  0
  -42.4130  -15.9770   66.0170 C   0  0  0  1  0  0  0  0  0  0  0  0
  -43.2110  -16.8460   66.7760 C   0  0  0  1  0  0  0  0  0  0  0  0
  -45.1910  -21.6840   69.7660 C   0  0  0  1  0  0  0  0  0  0  0  0
  -46.4930  -21.2420   70.4780 C   0  0  0  1  0  0  0  0  0  0  0  0
  -47.5330  -22.3540   70.7000 C   0  0  0  1  0  0  0  0  0  0  0  0
  -48.7230  -21.7440   71.3580 N   0  0  0  1  0  0  0  0  0  0  0  0
  -49.6200  -20.9390   70.7110 C   0  0  0  1  0  0  0  0  0  0  0  0
  -50.9730  -20.1590   72.6200 C   0  0  0  1  0  0  0  0  0  0  0  0
  -50.3530  -20.7790   73.4930 O   0  0  0  1  0  0  0  0  0  0  0  0
  -52.8090  -18.9830   74.0500 C   0  0  0  1  0  0  0  0  0  0  0  0
  -50.7690  -18.7570   75.5520 N   0  0  0  1  0  0  0  0  0  0  0  0
  -50.5670  -19.3960   77.7500 O   0  0  0  1  0  0  0  0  0  0  0  0
  -48.0280  -18.1810   75.3340 C   0  0  0  1  0  0  0  0  0  0  0  0
  -48.5216  -17.5684   77.3095 H   0  0  0  1  0  0  0  0  0  0  0  0
  -48.0125  -19.2623   77.1453 H   0  0  0  1  0  0  0  0  0  0  0  0
  -51.1608  -19.7108   70.7125 H   0  0  0  1  0  0  0  0  0  0  0  0
  -48.8505  -21.2379   68.8597 H   0  0  0  1  0  0  0  0  0  0  0  0
  -52.2826  -18.8055   72.0412 H   0  0  0  1  0  0  0  0  0  0  0  0
  -52.6814  -19.6487   76.2112 H   0  0  0  1  0  0  0  0  0  0  0  0
  -42.9468  -22.1269   71.4777 H   0  0  0  1  0  0  0  0  0  0  0  0
  -42.9361  -20.5315   73.9099 H   0  0  0  1  0  0  0  0  0  0  0  0
  -42.3588  -22.1521   73.7550 H   0  0  0  1  0  0  0  0  0  0  0  0
  -44.9203  -20.1392   74.9183 H   0  0  0  1  0  0  0  0  0  0  0  0
  -47.0926  -20.9094   75.6921 H   0  0  0  1  0  0  0  0  0  0  0  0
  -48.3690  -24.2140   75.1846 H   0  0  0  1  0  0  0  0  0  0  0  0
  -46.3758  -24.7050   73.9875 H   0  0  0  1  0  0  0  0  0  0  0  0
  -44.2577  -23.8999   73.0906 H   0  0  0  1  0  0  0  0  0  0  0  0
  -43.2039  -20.8127   69.3804 H   0  0  0  1  0  0  0  0  0  0  0  0
  -45.0446  -18.6285   69.7546 H   0  0  0  1  0  0  0  0  0  0  0  0
  -45.5801  -17.1885   68.1669 H   0  0  0  1  0  0  0  0  0  0  0  0
  -47.7461  -17.5181   68.4982 H   0  0  0  1  0  0  0  0  0  0  0  0
  -49.9124  -18.2510   67.6937 H   0  0  0  1  0  0  0  0  0  0  0  0
  -50.1315  -19.4195   65.5785 H   0  0  0  1  0  0  0  0  0  0  0  0
  -48.1432  -19.9203   64.2641 H   0  0  0  1  0  0  0  0  0  0  0  0
  -45.9729  -19.2068   65.0724 H   0  0  0  1  0  0  0  0  0  0  0  0
  -46.1526  -16.1775   65.3469 H   0  0  0  1  0  0  0  0  0  0  0  0
  -44.7551  -14.7500   63.9826 H   0  0  0  1  0  0  0  0  0  0  0  0
  -42.3755  -14.5531   64.4505 H   0  0  0  1  0  0  0  0  0  0  0  0
  -41.4017  -15.9143   66.2129 H   0  0  0  1  0  0  0  0  0  0  0  0
  -42.7799  -17.3963   67.5352 H   0  0  0  1  0  0  0  0  0  0  0  0
  -44.8147  -22.5703   70.2326 H   0  0  0  1  0  0  0  0  0  0  0  0
  -45.4018  -21.8798   68.7354 H   0  0  0  1  0  0  0  0  0  0  0  0
  -46.9494  -20.4763   69.8862 H   0  0  0  1  0  0  0  0  0  0  0  0
  -46.1993  -20.9136   71.4531 H   0  0  0  1  0  0  0  0  0  0  0  0
  -47.1215  -23.1165   71.3278 H   0  0  0  1  0  0  0  0  0  0  0  0
  -47.8098  -22.7970   69.7662 H   0  0  0  1  0  0  0  0  0  0  0  0
  -48.8721  -21.9311   72.3130 H   0  0  0  1  0  0  0  0  0  0  0  0
  -53.6980  -19.5772   74.0103 H   0  0  0  1  0  0  0  0  0  0  0  0
  -52.9516  -17.9239   73.9961 H   0  0  0  1  0  0  0  0  0  0  0  0
  -48.5813  -17.3849   74.8812 H   0  0  0  1  0  0  0  0  0  0  0  0
  -48.1106  -19.0609   74.7308 H   0  0  0  1  0  0  0  0  0  0  0  0
  -46.9989  -17.8992   75.4148 H   0  0  0  1  0  0  0  0  0  0  0  0
  1  3  1  0  0  0  0
  1 45  1  0  0  0  0
  1 46  1  0  0  0  0
  1 47  1  0  0  0  0
  2 39  1  0  0  0  0
  2 40  1  0  0  0  0
  2 48  1  0  0  0  0
  3 43  1  0  0  0  0
  3 44  2  0  0  0  0
  4 21  2  0  0  0  0
  5 39  2  0  0  0  0
  5 49  1  0  0  0  0
  6 40  1  0  0  0  0
  6 42  1  0  0  0  0
  6 50  1  0  0  0  0
  7 42  1  0  0  0  0
  7 43  2  0  0  0  0
  7 51  1  0  0  0  0
  8  9  2  0  0  0  0
  9 10  1  0  0  0  0
  9 19  1  0  0  0  0
 10 11  1  0  0  0  0
 10 52  1  0  0  0  0
 11 12  1  0  0  0  0
 11 53  1  0  0  0  0
 11 54  1  0  0  0  0
 12 13  1  0  0  0  0
 12 18  2  0  0  0  0
 13 14  2  0  0  0  0
 13 55  1  0  0  0  0
 14 15  1  0  0  0  0
 14 56  1  0  0  0  0
 15 16  1  0  0  0  0
 15 17  2  0  0  0  0
 16 57  1  0  0  0  0
 17 18  1  0  0  0  0
 17 58  1  0  0  0  0
 18 59  1  0  0  0  0
 19 20  1  0  0  0  0
 19 35  1  0  0  0  0
 19 60  1  0  0  0  0
 20 21  1  0  0  0  0
 20 61  1  0  0  0  0
 21 22  1  0  0  0  0
 22 23  1  0  0  0  0
 22 29  1  0  0  0  0
 22 62  1  0  0  0  0
 23 24  2  0  0  0  0
 23 28  1  0  0  0  0
 24 25  1  0  0  0  0
 24 63  1  0  0  0  0
 25 26  2  0  0  0  0
 25 64  1  0  0  0  0
 26 27  1  0  0  0  0
 26 65  1  0  0  0  0
 27 28  2  0  0  0  0
 27 66  1  0  0  0  0
 28 67  1  0  0  0  0
 29 30  2  0  0  0  0
 29 34  1  0  0  0  0
 30 31  1  0  0  0  0
 30 68  1  0  0  0  0
 31 32  2  0  0  0  0
 31 69  1  0  0  0  0
 32 33  1  0  0  0  0
 32 70  1  0  0  0  0
 33 34  2  0  0  0  0
 33 71  1  0  0  0  0
 34 72  1  0  0  0  0
 35 36  1  0  0  0  0
 35 73  1  0  0  0  0
 35 74  1  0  0  0  0
 36 37  1  0  0  0  0
 36 75  1  0  0  0  0
 36 76  1  0  0  0  0
 37 38  1  0  0  0  0
 37 77  1  0  0  0  0
 37 78  1  0  0  0  0
 38 39  1  0  0  0  0
 38 79  1  0  0  0  0
 40 41  2  0  0  0  0
 42 80  1  0  0  0  0
 42 81  1  0  0  0  0
 45 82  1  0  0  0  0
 45 83  1  0  0  0  0
 45 84  1  0  0  0  0
M  END
> <ConfScore>
0.521526 

$$$$
crystal.ligand.pdb
 OpenBabel07101816183D

 84 86  0  0  0  0  0  0  0  0999 V2000
  -55.2586  -14.6531   71.6426 C   0  0  0  1  0  0  0  0  0  0  0  0
  -49.8539  -20.8179   68.9690 N   0  0  0  1  0  0  0  0  0  0  0  0
  -53.8576  -15.3099   71.5177 C   0  0  0  1  0  0  0  0  0  0  0  0
  -42.8081  -17.9971   69.3688 O   0  0  0  1  0  0  0  0  0  0  0  0
  -49.3568  -21.9360   67.0467 N   0  0  0  1  0  0  0  0  0  0  0  0
  -51.3078  -19.1374   69.4302 N   0  0  0  1  0  0  0  0  0  0  0  0
  -52.4382  -17.0428   70.4612 C   0  0  0  1  0  0  0  0  0  0  0  0
  -44.4579  -19.4824   72.0383 O   0  0  0  1  0  0  0  0  0  0  0  0
  -43.8220  -20.3150   71.3810 C   0  0  0  1  0  0  0  0  0  0  0  0
  -42.9090  -21.1632   71.9182 N   0  0  0  1  0  0  0  0  0  0  0  0
  -42.6376  -21.2862   73.3572 C   0  0  0  1  0  0  0  0  0  0  0  0
  -43.5110  -22.2901   73.8511 C   0  0  0  1  0  0  0  0  0  0  0  0
  -44.9041  -22.0752   73.8103 C   0  0  0  1  0  0  0  0  0  0  0  0
  -45.7782  -23.0690   74.2702 C   0  0  0  1  0  0  0  0  0  0  0  0
  -45.2711  -24.2719   74.8037 C   0  0  0  1  0  0  0  0  0  0  0  0
  -46.1130  -25.2515   75.2677 O   0  0  0  1  0  0  0  0  0  0  0  0
  -43.8858  -24.4915   74.8428 C   0  0  0  1  0  0  0  0  0  0  0  0
  -43.0049  -23.5169   74.3438 C   0  0  0  1  0  0  0  0  0  0  0  0
  -44.1210  -20.5520   69.8660 C   0  0  0  1  0  0  0  0  0  0  0  0
  -44.6560  -19.3320   69.1860 N   0  0  0  1  0  0  0  0  0  0  0  0
  -43.9847  -18.1602   69.0460 C   0  0  0  1  0  0  0  0  0  0  0  0
  -44.7554  -17.0109   68.3455 C   0  0  0  1  0  0  0  0  0  0  0  0
  -45.7298  -17.5972   67.4666 C   0  0  0  1  0  0  0  0  0  0  0  0
  -47.0841  -17.5669   67.8312 C   0  0  0  1  0  0  0  0  0  0  0  0
  -48.0436  -18.1769   67.0100 C   0  0  0  1  0  0  0  0  0  0  0  0
  -47.6796  -18.8344   65.8264 C   0  0  0  1  0  0  0  0  0  0  0  0
  -46.3371  -18.9061   65.4640 C   0  0  0  1  0  0  0  0  0  0  0  0
  -45.3787  -18.3013   66.2878 C   0  0  0  1  0  0  0  0  0  0  0  0
  -43.9087  -15.9770   67.7981 C   0  0  0  1  0  0  0  0  0  0  0  0
  -42.9190  -15.3131   68.5571 C   0  0  0  1  0  0  0  0  0  0  0  0
  -42.0958  -14.3287   67.9913 C   0  0  0  1  0  0  0  0  0  0  0  0
  -42.1866  -14.0280   66.6333 C   0  0  0  1  0  0  0  0  0  0  0  0
  -43.1325  -14.7030   65.8603 C   0  0  0  1  0  0  0  0  0  0  0  0
  -43.9716  -15.6727   66.4291 C   0  0  0  1  0  0  0  0  0  0  0  0
  -45.1910  -21.6840   69.7660 C   0  0  0  1  0  0  0  0  0  0  0  0
  -46.5176  -21.2128   70.4106 C   0  0  0  1  0  0  0  0  0  0  0  0
  -47.6665  -22.2357   70.3774 C   0  0  0  1  0  0  0  0  0  0  0  0
  -48.0672  -22.4292   68.9550 N   0  0  0  1  0  0  0  0  0  0  0  0
  -49.0750  -21.7316   68.3477 C   0  0  0  1  0  0  0  0  0  0  0  0
  -50.8705  -20.0498   68.5241 C   0  0  0  1  0  0  0  0  0  0  0  0
  -51.3568  -20.2376   67.4020 O   0  0  0  1  0  0  0  0  0  0  0  0
  -52.4544  -18.1931   69.4422 C   0  0  0  1  0  0  0  0  0  0  0  0
  -53.7204  -16.3240   70.6136 N   0  0  0  1  0  0  0  0  0  0  0  0
  -52.9412  -14.9212   72.2583 O   0  0  0  1  0  0  0  0  0  0  0  0
  -55.2698  -13.1701   71.2689 C   0  0  0  1  0  0  0  0  0  0  0  0
  -55.9350  -15.1711   70.9951 H   0  0  0  1  0  0  0  0  0  0  0  0
  -55.5494  -14.7221   72.6700 H   0  0  0  1  0  0  0  0  0  0  0  0
  -49.6402  -20.6892   69.9214 H   0  0  0  1  0  0  0  0  0  0  0  0
  -48.8329  -22.5869   66.5260 H   0  0  0  1  0  0  0  0  0  0  0  0
  -50.7533  -19.0930   70.2425 H   0  0  0  1  0  0  0  0  0  0  0  0
  -51.5944  -16.7909   70.9992 H   0  0  0  1  0  0  0  0  0  0  0  0
  -42.3943  -21.7342   71.3031 H   0  0  0  1  0  0  0  0  0  0  0  0
  -42.8289  -20.3558   73.8496 H   0  0  0  1  0  0  0  0  0  0  0  0
  -41.6144  -21.5434   73.5359 H   0  0  0  1  0  0  0  0  0  0  0  0
  -45.2794  -21.1872   73.4422 H   0  0  0  1  0  0  0  0  0  0  0  0
  -46.7981  -22.9198   74.2183 H   0  0  0  1  0  0  0  0  0  0  0  0
  -47.0410  -25.1248   75.2372 H   0  0  0  1  0  0  0  0  0  0  0  0
  -43.5136  -25.3690   75.2382 H   0  0  0  1  0  0  0  0  0  0  0  0
  -41.9885  -23.6957   74.3366 H   0  0  0  1  0  0  0  0  0  0  0  0
  -43.2039  -20.8127   69.3804 H   0  0  0  1  0  0  0  0  0  0  0  0
  -45.5649  -19.3826   68.8111 H   0  0  0  1  0  0  0  0  0  0  0  0
  -45.2965  -16.4328   69.0651 H   0  0  0  1  0  0  0  0  0  0  0  0
  -47.3741  -17.0962   68.7026 H   0  0  0  1  0  0  0  0  0  0  0  0
  -49.0382  -18.1411   67.2827 H   0  0  0  1  0  0  0  0  0  0  0  0
  -48.4025  -19.2627   65.2272 H   0  0  0  1  0  0  0  0  0  0  0  0
  -46.0524  -19.3971   64.6020 H   0  0  0  1  0  0  0  0  0  0  0  0
  -44.3826  -18.3709   66.0272 H   0  0  0  1  0  0  0  0  0  0  0  0
  -42.7988  -15.5586   69.5522 H   0  0  0  1  0  0  0  0  0  0  0  0
  -41.4186  -13.8237   68.5841 H   0  0  0  1  0  0  0  0  0  0  0  0
  -41.5669  -13.3207   66.2081 H   0  0  0  1  0  0  0  0  0  0  0  0
  -43.2159  -14.4855   64.8549 H   0  0  0  1  0  0  0  0  0  0  0  0
  -44.6478  -16.1716   65.8300 H   0  0  0  1  0  0  0  0  0  0  0  0
  -44.8366  -22.5537   70.2788 H   0  0  0  1  0  0  0  0  0  0  0  0
  -45.3627  -21.9168   68.7358 H   0  0  0  1  0  0  0  0  0  0  0  0
  -46.8425  -20.3344   69.8931 H   0  0  0  1  0  0  0  0  0  0  0  0
  -46.3004  -21.0463   71.4450 H   0  0  0  1  0  0  0  0  0  0  0  0
  -48.4974  -21.8677   70.9423 H   0  0  0  1  0  0  0  0  0  0  0  0
  -47.3509  -23.1643   70.8052 H   0  0  0  1  0  0  0  0  0  0  0  0
  -47.5785  -23.0972   68.4219 H   0  0  0  1  0  0  0  0  0  0  0  0
  -53.3372  -18.7686   69.6277 H   0  0  0  1  0  0  0  0  0  0  0  0
  -52.4054  -17.7051   68.4912 H   0  0  0  1  0  0  0  0  0  0  0  0
  -54.9029  -13.0509   70.2708 H   0  0  0  1  0  0  0  0  0  0  0  0
  -54.6443  -12.6269   71.9461 H   0  0  0  1  0  0  0  0  0  0  0  0
  -56.2701  -12.7948   71.3284 H   0  0  0  1  0  0  0  0  0  0  0  0
  1  3  1  0  0  0  0
  1 45  1  0  0  0  0
  1 46  1  0  0  0  0
  1 47  1  0  0  0  0
  2 39  1  0  0  0  0
  2 40  1  0  0  0  0
  2 48  1  0  0  0  0
  3 43  1  0  0  0  0
  3 44  2  0  0  0  0
  4 21  2  0  0  0  0
  5 39  2  0  0  0  0
  5 49  1  0  0  0  0
  6 40  1  0  0  0  0
  6 42  1  0  0  0  0
  6 50  1  0  0  0  0
  7 42  1  0  0  0  0
  7 43  2  0  0  0  0
  7 51  1  0  0  0  0
  8  9  2  0  0  0  0
  9 10  1  0  0  0  0
  9 19  1  0  0  0  0
 10 11  1  0  0  0  0
 10 52  1  0  0  0  0
 11 12  1  0  0  0  0
 11 53  1  0  0  0  0
 11 54  1  0  0  0  0
 12 13  1  0  0  0  0
 12 18  2  0  0  0  0
 13 14  2  0  0  0  0
 13 55  1  0  0  0  0
 14 15  1  0  0  0  0
 14 56  1  0  0  0  0
 15 16  1  0  0  0  0
 15 17  2  0  0  0  0
 16 57  1  0  0  0  0
 17 18  1  0  0  0  0
 17 58  1  0  0  0  0
 18 59  1  0  0  0  0
 19 20  1  0  0  0  0
 19 35  1  0  0  0  0
 19 60  1  0  0  0  0
 20 21  1  0  0  0  0
 20 61  1  0  0  0  0
 21 22  1  0  0  0  0
 22 23  1  0  0  0  0
 22 29  1  0  0  0  0
 22 62  1  0  0  0  0
 23 24  2  0  0  0  0
 23 28  1  0  0  0  0
 24 25  1  0  0  0  0
 24 63  1  0  0  0  0
 25 26  2  0  0  0  0
 25 64  1  0  0  0  0
 26 27  1  0  0  0  0
 26 65  1  0  0  0  0
 27 28  2  0  0  0  0
 27 66  1  0  0  0  0
 28 67  1  0  0  0  0
 29 30  2  0  0  0  0
 29 34  1  0  0  0  0
 30 31  1  0  0  0  0
 30 68  1  0  0  0  0
 31 32  2  0  0  0  0
 31 69  1  0  0  0  0
 32 33  1  0  0  0  0
 32 70  1  0  0  0  0
 33 34  2  0  0  0  0
 33 71  1  0  0  0  0
 34 72  1  0  0  0  0
 35 36  1  0  0  0  0
 35 73  1  0  0  0  0
 35 74  1  0  0  0  0
 36 37  1  0  0  0  0
 36 75  1  0  0  0  0
 36 76  1  0  0  0  0
 37 38  1  0  0  0  0
 37 77  1  0  0  0  0
 37 78  1  0  0  0  0
 38 39  1  0  0  0  0
 38 79  1  0  0  0  0
 40 41  2  0  0  0  0
 42 80  1  0  0  0  0
 42 81  1  0  0  0  0
 45 82  1  0  0  0  0
 45 83  1  0  0  0  0
 45 84  1  0  0  0  0
M  END
> <ConfScore>
0.56858 

$$$$
