NPY1_MK299_12302016.pdb.B
  MOE2014           3D

 92 94  0  0  1  0  0  0  0  0999 V2000
  -49.6155  -17.1249   75.9370 C   0  0  0  0  0  0  0  0  0  0  0  0
  -49.8199  -16.3193   75.2260 H   0  0  0  0  0  0  0  0  0  0  0  0
  -50.0609  -16.8501   76.8989 H   0  0  0  0  0  0  0  0  0  0  0  0
  -48.1807  -17.2380   76.1481 N   0  0  0  0  0  0  0  0  0  0  0  0
  -47.8642  -17.5648   77.0533 H   0  0  0  0  0  0  0  0  0  0  0  0
  -47.1584  -16.9601   75.2816 C   0  0  0  0  0  0  0  0  0  0  0  0
  -47.5322  -16.4682   73.8966 C   0  0  0  0  0  0  0  0  0  0  0  0
  -48.0546  -15.5106   73.9960 H   0  0  0  0  0  0  0  0  0  0  0  0
  -48.2133  -17.1889   73.4332 H   0  0  0  0  0  0  0  0  0  0  0  0
  -46.3206  -16.2832   73.0006 C   0  0  0  0  0  0  0  0  0  0  0  0
  -46.6279  -15.9413   72.0075 H   0  0  0  0  0  0  0  0  0  0  0  0
  -45.7745  -17.2238   72.8854 H   0  0  0  0  0  0  0  0  0  0  0  0
  -45.6303  -15.5436   73.4191 H   0  0  0  0  0  0  0  0  0  0  0  0
  -50.1919  -18.4462   75.4440 C   0  0  0  0  0  0  0  0  0  0  0  0
  -49.6512  -18.7473   74.5403 H   0  0  0  0  0  0  0  0  0  0  0  0
  -50.0052  -19.2323   76.1867 H   0  0  0  0  0  0  0  0  0  0  0  0
  -51.6980  -18.3590   75.1580 C   0  0  0  0  0  0  0  0  0  0  0  0
  -52.2426  -18.2304   76.0934 H   0  0  0  0  0  0  0  0  0  0  0  0
  -51.8873  -17.5054   74.5071 H   0  0  0  0  0  0  0  0  0  0  0  0
  -52.1970  -19.6550   74.4540 C   0  0  0  0  0  0  0  0  0  0  0  0
  -53.2869  -19.6683   74.4444 H   0  0  0  0  0  0  0  0  0  0  0  0
  -51.8278  -20.5278   74.9925 H   0  0  0  0  0  0  0  0  0  0  0  0
  -51.6950  -19.6790   73.0800 N   0  0  0  0  0  0  0  0  0  0  0  0
  -52.1304  -19.0390   72.4313 H   0  0  0  0  0  0  0  0  0  0  0  0
  -50.6730  -20.4950   72.5630 C   0  0  0  0  0  0  0  0  0  0  0  0
  -50.1200  -21.3380   73.2890 O   0  0  0  0  0  0  0  0  0  0  0  0
  -50.4600  -20.2550   71.1740 N   0  0  0  0  0  0  0  0  0  0  0  0
  -50.9687  -19.4646   70.8044 H   0  0  0  0  0  0  0  0  0  0  0  0
  -49.6900  -20.9060   70.2590 C   0  0  0  0  0  0  0  0  0  0  0  0
  -50.2570  -20.8250   69.0000 N   0  0  0  0  0  0  0  0  0  0  0  0
  -49.8842  -21.3783   68.2417 H   0  0  0  0  0  0  0  0  0  0  0  0
  -51.0438  -20.2125   68.8389 H   0  0  0  0  0  0  0  0  0  0  0  0
  -48.6290  -21.7900   70.2920 N   0  0  0  0  0  0  0  0  0  0  0  0
  -47.7070  -22.1200   71.3230 C   0  0  0  0  0  0  0  0  0  0  0  0
  -48.1435  -21.9395   72.3054 H   0  0  0  0  0  0  0  0  0  0  0  0
  -47.3992  -23.1630   71.2482 H   0  0  0  0  0  0  0  0  0  0  0  0
  -46.5220  -21.1840   71.0740 C   0  0  0  0  0  0  0  0  0  0  0  0
  -46.9258  -20.2178   70.7716 H   0  0  0  0  0  0  0  0  0  0  0  0
  -45.9869  -21.0750   72.0173 H   0  0  0  0  0  0  0  0  0  0  0  0
  -45.4860  -21.6160   69.9960 C   0  0  0  0  0  0  0  0  0  0  0  0
  -45.9831  -21.6765   69.0278 H   0  0  0  0  0  0  0  0  0  0  0  0
  -45.0840  -22.5942   70.2597 H   0  0  0  0  0  0  0  0  0  0  0  0
  -44.2930  -20.5720   69.9030 C   0  0  3  0  0  0  0  0  0  0  0  0
  -43.4175  -20.9189   69.3542 H   0  0  0  0  0  0  0  0  0  0  0  0
  -43.9430  -20.2610   71.3950 C   0  0  0  0  0  0  0  0  0  0  0  0
  -43.2680  -21.2970   72.0370 N   0  0  0  0  0  0  0  0  0  0  0  0
  -42.9631  -22.0791   71.4753 H   0  0  0  0  0  0  0  0  0  0  0  0
  -42.9760  -21.3290   73.4430 C   0  0  0  0  0  0  0  0  0  0  0  0
  -42.1220  -21.9707   73.6596 H   0  0  0  0  0  0  0  0  0  0  0  0
  -42.7882  -20.3295   73.8353 H   0  0  0  0  0  0  0  0  0  0  0  0
  -44.2750  -21.9160   74.0000 C   0  0  0  0  0  0  0  0  0  0  0  0
  -44.6710  -23.2570   73.6750 C   0  0  0  0  0  0  0  0  0  0  0  0
  -44.0095  -23.8778   73.0890 H   0  0  0  0  0  0  0  0  0  0  0  0
  -45.9140  -23.7810   74.1090 C   0  0  0  0  0  0  0  0  0  0  0  0
  -46.2001  -24.7938   73.8667 H   0  0  0  0  0  0  0  0  0  0  0  0
  -46.7720  -22.9500   74.8660 C   0  0  0  0  0  0  0  0  0  0  0  0
  -48.0010  -23.3600   75.3380 O   0  0  0  0  0  0  0  0  0  0  0  0
  -48.4837  -22.6994   75.8401 H   0  0  0  0  0  0  0  0  0  0  0  0
  -46.3920  -21.6040   75.1900 C   0  0  0  0  0  0  0  0  0  0  0  0
  -47.0635  -20.9775   75.7583 H   0  0  0  0  0  0  0  0  0  0  0  0
  -45.1510  -21.0990   74.7710 C   0  0  0  0  0  0  0  0  0  0  0  0
  -44.8607  -20.0922   75.0329 H   0  0  0  0  0  0  0  0  0  0  0  0
  -44.2390  -19.1780   71.9410 O   0  0  0  0  0  0  0  0  0  0  0  0
  -44.8310  -19.3810   69.2410 N   0  0  0  0  0  0  0  0  0  0  0  0
  -45.3418  -18.7187   69.8071 H   0  0  0  0  0  0  0  0  0  0  0  0
  -44.6870  -19.1000   67.8890 C   0  0  0  0  0  0  0  0  0  0  0  0
  -44.0790  -19.8190   67.1090 O   0  0  0  0  0  0  0  0  0  0  0  0
  -45.4070  -17.8340   67.4640 C   0  0  0  0  0  0  0  0  0  0  0  0
  -45.5191  -17.1446   68.3008 H   0  0  0  0  0  0  0  0  0  0  0  0
  -46.7920  -18.2790   66.9880 C   0  0  0  0  0  0  0  0  0  0  0  0
  -47.9390  -17.9030   67.6910 C   0  0  0  0  0  0  0  0  0  0  0  0
  -47.8686  -17.2440   68.5437 H   0  0  0  0  0  0  0  0  0  0  0  0
  -49.1880  -18.3970   67.2700 C   0  0  0  0  0  0  0  0  0  0  0  0
  -50.0790  -18.1102   67.8088 H   0  0  0  0  0  0  0  0  0  0  0  0
  -46.9160  -19.1540   65.8530 C   0  0  0  0  0  0  0  0  0  0  0  0
  -46.0285  -19.4383   65.3071 H   0  0  0  0  0  0  0  0  0  0  0  0
  -48.1600  -19.6460   65.4390 C   0  0  0  0  0  0  0  0  0  0  0  0
  -48.2363  -20.3059   64.5875 H   0  0  0  0  0  0  0  0  0  0  0  0
  -49.3010  -19.2650   66.1510 C   0  0  0  0  0  0  0  0  0  0  0  0
  -50.2712  -19.6315   65.8496 H   0  0  0  0  0  0  0  0  0  0  0  0
  -44.6090  -16.9290   66.5050 C   0  0  0  0  0  0  0  0  0  0  0  0
  -43.2450  -16.6910   66.7460 C   0  0  0  0  0  0  0  0  0  0  0  0
  -42.7509  -17.1929   67.5647 H   0  0  0  0  0  0  0  0  0  0  0  0
  -42.5140  -15.8010   65.9270 C   0  0  0  0  0  0  0  0  0  0  0  0
  -41.4684  -15.6253   66.1325 H   0  0  0  0  0  0  0  0  0  0  0  0
  -43.1280  -15.1420   64.8500 C   0  0  0  0  0  0  0  0  0  0  0  0
  -42.5627  -14.4605   64.2316 H   0  0  0  0  0  0  0  0  0  0  0  0
  -44.4780  -15.3790   64.5890 C   0  0  0  0  0  0  0  0  0  0  0  0
  -44.9601  -14.8861   63.7577 H   0  0  0  0  0  0  0  0  0  0  0  0
  -45.2150  -16.2600   65.4070 C   0  0  0  0  0  0  0  0  0  0  0  0
  -46.2603  -16.4297   65.1951 H   0  0  0  0  0  0  0  0  0  0  0  0
  -45.9963  -17.1064   75.6579 O   0  0  0  0  0  0  0  0  0  0  0  0
  1  2  1  0  0  0  0
  1  3  1  0  0  0  0
  1  4  1  0  0  0  0
  1 14  1  0  0  0  0
  4  5  1  0  0  0  0
  4  6  1  0  0  0  0
  6  7  1  0  0  0  0
  6 92  2  0  0  0  0
  7  8  1  0  0  0  0
  7  9  1  0  0  0  0
  7 10  1  0  0  0  0
 10 11  1  0  0  0  0
 10 12  1  0  0  0  0
 10 13  1  0  0  0  0
 14 15  1  0  0  0  0
 14 16  1  0  0  0  0
 14 17  1  0  0  0  0
 17 18  1  0  0  0  0
 17 19  1  0  0  0  0
 17 20  1  0  0  0  0
 20 21  1  0  0  0  0
 20 22  1  0  0  0  0
 20 23  1  0  0  0  0
 23 24  1  0  0  0  0
 23 25  1  0  0  0  0
 25 26  2  0  0  0  0
 25 27  1  0  0  0  0
 27 28  1  0  0  0  0
 27 29  1  0  0  0  0
 29 30  1  0  0  0  0
 29 33  2  0  0  0  0
 30 31  1  0  0  0  0
 30 32  1  0  0  0  0
 33 34  1  0  0  0  0
 34 35  1  0  0  0  0
 34 36  1  0  0  0  0
 34 37  1  0  0  0  0
 37 38  1  0  0  0  0
 37 39  1  0  0  0  0
 37 40  1  0  0  0  0
 40 41  1  0  0  0  0
 40 42  1  0  0  0  0
 40 43  1  0  0  0  0
 43 44  1  0  0  0  0
 43 45  1  0  0  0  0
 43 64  1  0  0  0  0
 45 46  1  0  0  0  0
 45 63  2  0  0  0  0
 46 47  1  0  0  0  0
 46 48  1  0  0  0  0
 48 49  1  0  0  0  0
 48 50  1  0  0  0  0
 48 51  1  0  0  0  0
 51 52  1  0  0  0  0
 51 61  2  0  0  0  0
 52 53  1  0  0  0  0
 52 54  2  0  0  0  0
 54 55  1  0  0  0  0
 54 56  1  0  0  0  0
 56 57  1  0  0  0  0
 56 59  2  0  0  0  0
 57 58  1  0  0  0  0
 59 60  1  0  0  0  0
 59 61  1  0  0  0  0
 61 62  1  0  0  0  0
 64 65  1  0  0  0  0
 64 66  1  0  0  0  0
 66 67  2  0  0  0  0
 66 68  1  0  0  0  0
 68 69  1  0  0  0  0
 68 70  1  0  0  0  0
 68 81  1  0  0  0  0
 70 71  2  0  0  0  0
 70 75  1  0  0  0  0
 71 72  1  0  0  0  0
 71 73  1  0  0  0  0
 73 74  1  0  0  0  0
 73 79  2  0  0  0  0
 75 76  1  0  0  0  0
 75 77  2  0  0  0  0
 77 78  1  0  0  0  0
 77 79  1  0  0  0  0
 79 80  1  0  0  0  0
 81 82  1  0  0  0  0
 81 90  2  0  0  0  0
 82 83  1  0  0  0  0
 82 84  2  0  0  0  0
 84 85  1  0  0  0  0
 84 86  1  0  0  0  0
 86 87  1  0  0  0  0
 86 88  2  0  0  0  0
 88 89  1  0  0  0  0
 88 90  1  0  0  0  0
 90 91  1  0  0  0  0
M  END
> <SampleByParts>
10 7 6 92 4 1 14 17 20 23 25 26 27 29 30 33

$$$$
