crystal.ligand.pdb
 OpenBabel07101816183D

 84 86  0  0  1  0  0  0  0  0999 V2000
  -48.5900  -18.4640   76.7280 C   0  0  0  0  0  0  0  0  0  0  0  0
  -50.6070  -20.2480   71.3240 N   0  0  0  0  0  0  0  0  0  0  0  0
  -50.0710  -18.9290   76.7130 C   0  0  0  0  0  0  0  0  0  0  0  0
  -44.1610  -19.9010   67.0270 O   0  0  0  0  0  0  0  0  0  0  0  0
  -49.5650  -20.7960   69.3730 N   0  0  0  0  0  0  0  0  0  0  0  0
  -52.0080  -19.3080   72.8420 N   0  0  0  0  0  0  0  0  0  0  0  0
  -52.1700  -19.2110   75.4290 C   0  0  0  0  0  0  0  0  0  0  0  0
  -44.1600  -19.2680   71.9460 O   0  0  0  0  0  0  0  0  0  0  0  0
  -43.8220  -20.3150   71.3810 C   0  0  0  0  0  0  0  0  0  0  0  0
  -43.2790  -21.3790   72.0250 N   0  0  0  0  0  0  0  0  0  0  0  0
  -43.1540  -21.4890   73.4850 C   0  0  0  0  0  0  0  0  0  0  0  0
  -44.4020  -21.9650   73.9650 C   0  0  0  0  0  0  0  0  0  0  0  0
  -45.2310  -21.1010   74.7100 C   0  0  0  0  0  0  0  0  0  0  0  0
  -46.4770  -21.5500   75.1670 C   0  0  0  0  0  0  0  0  0  0  0  0
  -46.8940  -22.8730   74.9130 C   0  0  0  0  0  0  0  0  0  0  0  0
  -48.1070  -23.3320   75.3620 O   0  0  0  0  0  0  0  0  0  0  0  0
  -46.0740  -23.7350   74.1690 C   0  0  0  0  0  0  0  0  0  0  0  0
  -44.8420  -23.2780   73.6710 C   0  0  0  0  0  0  0  0  0  0  0  0
  -44.1210  -20.5520   69.8660 C   0  0  2  0  0  0  0  0  0  0  0  0
  -44.6560  -19.3320   69.1860 N   0  0  0  0  0  0  0  0  0  0  0  0
  -44.6470  -19.1200   67.8450 C   0  0  0  0  0  0  0  0  0  0  0  0
  -45.3880  -17.8510   67.3490 C   0  0  0  0  0  0  0  0  0  0  0  0
  -46.6670  -18.2540   66.8320 C   0  0  0  0  0  0  0  0  0  0  0  0
  -47.8190  -18.0120   67.5950 C   0  0  0  0  0  0  0  0  0  0  0  0
  -49.0700  -18.4420   67.1290 C   0  0  0  0  0  0  0  0  0  0  0  0
  -49.2000  -19.1260   65.9120 C   0  0  0  0  0  0  0  0  0  0  0  0
  -48.0650  -19.4070   65.1560 C   0  0  0  0  0  0  0  0  0  0  0  0
  -46.8150  -18.9820   65.6250 C   0  0  0  0  0  0  0  0  0  0  0  0
  -44.5850  -16.9810   66.5220 C   0  0  0  0  0  0  0  0  0  0  0  0
  -45.1350  -16.1540   65.5170 C   0  0  0  0  0  0  0  0  0  0  0  0
  -44.3320  -15.3020   64.7450 C   0  0  0  0  0  0  0  0  0  0  0  0
  -42.9660  -15.1960   65.0010 C   0  0  0  0  0  0  0  0  0  0  0  0
  -42.4130  -15.9770   66.0170 C   0  0  0  0  0  0  0  0  0  0  0  0
  -43.2110  -16.8460   66.7760 C   0  0  0  0  0  0  0  0  0  0  0  0
  -45.1910  -21.6840   69.7660 C   0  0  0  0  0  0  0  0  0  0  0  0
  -46.4930  -21.2420   70.4780 C   0  0  0  0  0  0  0  0  0  0  0  0
  -47.5330  -22.3540   70.7000 C   0  0  0  0  0  0  0  0  0  0  0  0
  -48.7230  -21.7440   71.3580 N   0  0  0  0  0  0  0  0  0  0  0  0
  -49.6200  -20.9390   70.7110 C   0  0  0  0  0  0  0  0  0  0  0  0
  -50.9730  -20.1590   72.6200 C   0  0  0  0  0  0  0  0  0  0  0  0
  -50.3530  -20.7790   73.4930 O   0  0  0  0  0  0  0  0  0  0  0  0
  -52.8090  -18.9830   74.0500 C   0  0  0  0  0  0  0  0  0  0  0  0
  -50.7690  -18.7570   75.5520 N   0  0  0  0  0  0  0  0  0  0  0  0
  -50.5670  -19.3960   77.7500 O   0  0  0  0  0  0  0  0  0  0  0  0
  -48.0280  -18.1810   75.3340 C   0  0  0  0  0  0  0  0  0  0  0  0
  -48.5216  -17.5684   77.3095 H   0  0  0  0  0  0  0  0  0  0  0  0
  -48.0125  -19.2623   77.1453 H   0  0  0  0  0  0  0  0  0  0  0  0
  -51.1608  -19.7108   70.7125 H   0  0  0  0  0  0  0  0  0  0  0  0
  -50.2133  -20.2152   68.9130 H   0  0  0  0  0  0  0  0  0  0  0  0
  -52.2826  -18.8055   72.0412 H   0  0  0  0  0  0  0  0  0  0  0  0
  -52.6814  -19.6487   76.2112 H   0  0  0  0  0  0  0  0  0  0  0  0
  -42.9468  -22.1269   71.4777 H   0  0  0  0  0  0  0  0  0  0  0  0
  -42.9361  -20.5315   73.9099 H   0  0  0  0  0  0  0  0  0  0  0  0
  -42.3588  -22.1521   73.7550 H   0  0  0  0  0  0  0  0  0  0  0  0
  -44.9203  -20.1392   74.9183 H   0  0  0  0  0  0  0  0  0  0  0  0
  -47.0926  -20.9094   75.6921 H   0  0  0  0  0  0  0  0  0  0  0  0
  -48.3690  -24.2140   75.1846 H   0  0  0  0  0  0  0  0  0  0  0  0
  -46.3758  -24.7050   73.9875 H   0  0  0  0  0  0  0  0  0  0  0  0
  -44.2577  -23.8999   73.0906 H   0  0  0  0  0  0  0  0  0  0  0  0
  -43.2039  -20.8127   69.3804 H   0  0  0  0  0  0  0  0  0  0  0  0
  -45.0446  -18.6285   69.7546 H   0  0  0  0  0  0  0  0  0  0  0  0
  -45.5801  -17.1885   68.1669 H   0  0  0  0  0  0  0  0  0  0  0  0
  -47.7461  -17.5181   68.4982 H   0  0  0  0  0  0  0  0  0  0  0  0
  -49.9124  -18.2510   67.6937 H   0  0  0  0  0  0  0  0  0  0  0  0
  -50.1315  -19.4195   65.5785 H   0  0  0  0  0  0  0  0  0  0  0  0
  -48.1432  -19.9203   64.2641 H   0  0  0  0  0  0  0  0  0  0  0  0
  -45.9729  -19.2068   65.0724 H   0  0  0  0  0  0  0  0  0  0  0  0
  -46.1526  -16.1775   65.3469 H   0  0  0  0  0  0  0  0  0  0  0  0
  -44.7551  -14.7500   63.9826 H   0  0  0  0  0  0  0  0  0  0  0  0
  -42.3755  -14.5531   64.4505 H   0  0  0  0  0  0  0  0  0  0  0  0
  -41.4017  -15.9143   66.2129 H   0  0  0  0  0  0  0  0  0  0  0  0
  -42.7799  -17.3963   67.5352 H   0  0  0  0  0  0  0  0  0  0  0  0
  -44.8147  -22.5703   70.2326 H   0  0  0  0  0  0  0  0  0  0  0  0
  -45.4018  -21.8798   68.7354 H   0  0  0  0  0  0  0  0  0  0  0  0
  -46.9494  -20.4763   69.8862 H   0  0  0  0  0  0  0  0  0  0  0  0
  -46.1993  -20.9136   71.4531 H   0  0  0  0  0  0  0  0  0  0  0  0
  -47.1215  -23.1165   71.3278 H   0  0  0  0  0  0  0  0  0  0  0  0
  -47.8098  -22.7970   69.7662 H   0  0  0  0  0  0  0  0  0  0  0  0
  -48.8721  -21.9311   72.3130 H   0  0  0  0  0  0  0  0  0  0  0  0
  -53.6980  -19.5772   74.0103 H   0  0  0  0  0  0  0  0  0  0  0  0
  -52.9516  -17.9239   73.9961 H   0  0  0  0  0  0  0  0  0  0  0  0
  -48.5813  -17.3849   74.8812 H   0  0  0  0  0  0  0  0  0  0  0  0
  -48.1106  -19.0609   74.7308 H   0  0  0  0  0  0  0  0  0  0  0  0
  -46.9989  -17.8992   75.4148 H   0  0  0  0  0  0  0  0  0  0  0  0
  1 46  1  0  0  0  0
  1 47  1  0  0  0  0
  2 40  1  0  0  0  0
  2 48  1  0  0  0  0
  3  1  1  0  0  0  0
  3 44  2  0  0  0  0
  4 21  2  0  0  0  0
  5 39  2  0  0  0  0
  5 49  1  0  0  0  0
  6 42  1  0  0  0  0
  6 50  1  0  0  0  0
  7 43  2  0  0  0  0
  7 51  1  0  0  0  0
  9  8  2  0  0  0  0
  9 10  1  0  0  0  0
 10 11  1  0  0  0  0
 10 52  1  0  0  0  0
 11 12  1  0  0  0  0
 11 53  1  0  0  0  0
 11 54  1  0  0  0  0
 12 13  1  0  0  0  0
 13 14  2  0  0  0  0
 13 55  1  0  0  0  0
 14 56  1  0  0  0  0
 15 14  1  0  0  0  0
 15 16  1  0  0  0  0
 16 57  1  0  0  0  0
 17 15  2  0  0  0  0
 17 58  1  0  0  0  0
 18 12  2  0  0  0  0
 18 17  1  0  0  0  0
 18 59  1  0  0  0  0
 19  9  1  0  0  0  0
 19 60  1  6  0  0  0
 20 19  1  0  0  0  0
 20 61  1  0  0  0  0
 21 20  1  0  0  0  0
 22 21  1  0  0  0  0
 22 62  1  0  0  0  0
 23 22  1  0  0  0  0
 23 24  2  0  0  0  0
 24 63  1  0  0  0  0
 25 24  1  0  0  0  0
 25 64  1  0  0  0  0
 26 25  2  0  0  0  0
 26 65  1  0  0  0  0
 27 28  2  0  0  0  0
 27 26  1  0  0  0  0
 27 66  1  0  0  0  0
 28 23  1  0  0  0  0
 28 67  1  0  0  0  0
 29 34  1  0  0  0  0
 29 22  1  0  0  0  0
 30 29  2  0  0  0  0
 30 68  1  0  0  0  0
 31 32  2  0  0  0  0
 31 30  1  0  0  0  0
 31 69  1  0  0  0  0
 32 33  1  0  0  0  0
 32 70  1  0  0  0  0
 33 34  2  0  0  0  0
 33 71  1  0  0  0  0
 34 72  1  0  0  0  0
 35 19  1  0  0  0  0
 35 36  1  0  0  0  0
 35 73  1  0  0  0  0
 35 74  1  0  0  0  0
 36 37  1  0  0  0  0
 36 75  1  0  0  0  0
 36 76  1  0  0  0  0
 37 38  1  0  0  0  0
 37 77  1  0  0  0  0
 37 78  1  0  0  0  0
 38 79  1  0  0  0  0
 39  2  1  0  0  0  0
 39 38  1  0  0  0  0
 40  6  1  0  0  0  0
 40 41  2  0  0  0  0
 42  7  1  0  0  0  0
 42 80  1  0  0  0  0
 42 81  1  0  0  0  0
 43  3  1  0  0  0  0
 45  1  1  0  0  0  0
 45 82  1  0  0  0  0
 45 83  1  0  0  0  0
 45 84  1  0  0  0  0
M  END
$$$$
