2V0W_FMN_A_1547
  RCSB PDB05311116003D
Coordinates from PDB:2V0W:A:1547 Model:1 without hydrogens
 31 33  0  0  0  0            999 V2000
   20.3670    0.4610    6.0770 N   0  0  0  0  0  0  0  0  0  0  0  0
   20.5840   -0.8480    5.6370 C   0  0  0  0  0  0  0  0  0  0  0  0
   21.7420   -1.2110    5.5380 O   0  0  0  0  0  0  0  0  0  0  0  0
   19.5540   -1.6640    5.1980 N   0  0  0  0  0  0  0  0  0  0  0  0
   18.2380   -1.2910    5.3260 C   0  0  0  0  0  0  0  0  0  0  0  0
   17.2950   -2.0460    5.0400 O   0  0  0  0  0  0  0  0  0  0  0  0
   17.9210   -0.1110    6.2630 C   0  0  0  0  0  0  0  0  0  0  0  0
   16.7260    0.4960    5.8080 N   0  0  0  0  0  0  0  0  0  0  0  0
   16.4800    1.8090    6.2900 C   0  0  0  0  0  0  0  0  0  0  0  0
   15.1720    2.2450    6.3750 C   0  0  0  0  0  0  0  0  0  0  0  0
   14.8730    3.5420    6.7940 C   0  0  0  0  0  0  0  0  0  0  0  0
   13.4610    4.0420    6.7460 C   0  0  0  0  0  0  0  0  0  0  0  0
   15.9150    4.3490    7.1840 C   0  0  0  0  0  0  0  0  0  0  0  0
   15.6680    5.7710    7.6230 C   0  0  0  0  0  0  0  0  0  0  0  0
   17.2240    3.9130    7.1380 C   0  0  0  0  0  0  0  0  0  0  0  0
   17.5420    2.6240    6.6530 C   0  0  0  0  0  0  0  0  0  0  0  0
   18.8370    2.1800    6.6040 N   0  0  0  0  0  0  0  0  0  0  0  0
   19.0740    0.8940    6.1480 C   0  0  0  0  0  0  0  0  0  0  0  0
   20.0160    3.0470    6.5550 C   0  0  0  0  0  0  0  0  0  0  0  0
   20.6240    3.2540    7.9080 C   0  0  0  0  0  0  0  0  0  0  0  0
   19.6550    3.2670    8.9210 O   0  0  0  0  0  0  0  0  0  0  0  0
   21.4670    4.5380    7.9300 C   0  0  0  0  0  0  0  0  0  0  0  0
   20.6220    5.6230    7.5550 O   0  0  0  0  0  0  0  0  0  0  0  0
   22.6710    4.4370    7.0030 C   0  0  0  0  0  0  0  0  0  0  0  0
   23.5600    3.4560    7.5130 O   0  0  0  0  0  0  0  0  0  0  0  0
   23.4170    5.7780    6.8840 C   0  0  0  0  0  0  0  0  0  0  0  0
   23.6430    6.3260    8.1710 O   0  0  0  0  0  0  0  0  0  0  0  0
   24.9980    6.1090    8.9750 P   0  0  0  0  0  0  0  0  0  0  0  0
   24.8620    6.8220   10.2830 O   0  0  0  0  0  0  0  0  0  0  0  0
   26.1470    6.5760    8.1150 O   0  0  0  0  0  0  0  0  0  0  0  0
   25.1590    4.6090    9.2650 O   0  0  0  0  0  0  0  0  0  0  0  0
  1  2  1  0  0  0  0
  1 18  2  0  0  0  0
  2  3  2  0  0  0  0
  2  4  1  0  0  0  0
  4  5  1  0  0  0  0
  5  6  2  0  0  0  0
  5  7  1  0  0  0  0
  7  8  2  0  0  0  0
  7 18  1  0  0  0  0
  8  9  1  0  0  0  0
  9 10  2  0  0  0  0
  9 16  1  0  0  0  0
 10 11  1  0  0  0  0
 11 12  1  0  0  0  0
 11 13  2  0  0  0  0
 13 14  1  0  0  0  0
 13 15  1  0  0  0  0
 15 16  2  0  0  0  0
 16 17  1  0  0  0  0
 17 18  1  0  0  0  0
 17 19  1  0  0  0  0
 19 20  1  0  0  0  0
 20 21  1  0  0  0  0
 20 22  1  0  0  0  0
 22 23  1  0  0  0  0
 22 24  1  0  0  0  0
 24 25  1  0  0  0  0
 24 26  1  0  0  0  0
 26 27  1  0  0  0  0
 27 28  1  0  0  0  0
 28 29  2  0  0  0  0
 28 30  1  0  0  0  0
 28 31  1  0  0  0  0
A    1
N1
A    2
C2
A    3
O2
A    4
N3
A    5
C4
A    6
O4
A    7
C4A
A    8
N5
A    9
C5A
A   10
C6
A   11
C7
A   12
C7M
A   13
C8
A   14
C8M
A   15
C9
A   16
C9A
A   17
N10
A   18
C10
A   19
C1'
A   20
C2'
A   21
O2'
A   22
C3'
A   23
O3'
A   24
C4'
A   25
O4'
A   26
C5'
A   27
O5'
A   28
P
A   29
O1P
A   30
O2P
A   31
O3P
M  END
>  <InstanceId>
2V0W_FMN_A_1547

>  <ChemCompId>
FMN

>  <PdbId>
2V0W

>  <ChainId>
A

>  <ResidueNumber>
1547

>  <InsertionCode>


>  <Model>
1

>  <AltIds>


>  <MissingHeavyAtoms>
0

>  <ObservedFormula>
C17 N4 O9 P

>  <Name>
FLAVIN MONONUCLEOTIDE

>  <SystematicName>
[(2R,3S,4S)-5-(7,8-dimethyl-2,4-dioxo-benzo[g]pteridin-10-yl)-2,3,4-trihydroxy-pentyl] dihydrogen phosphate

>  <Synonyms>
RIBOFLAVIN MONOPHOSPHATE

>  <Type>
NON-POLYMER

>  <Formula>
C17 H21 N4 O9 P

>  <MolecularWeight>
456.344

>  <ModifiedDate>
2008-10-14

>  <Parent>


>  <OneLetterCode>


>  <SubcomponentList>


>  <AmbiguousFlag>
N

>  <InChI>
InChI=1/C17H21N4O9P/c1-7-3-9-10(4-8(7)2)21(15-13(18-9)16(25)20-17(26)19-15)5-11(22)14(24)12(23)6-30-31(27,28)29/h3-4,11-12,14,22-24H,5-6H2,1-2H3,(H,20,25,26)(H2,27,28,29)/t11-,12+,14-/m0/s1/f/h20,27-28H

>  <InChIKey>
FVTCRASFADXXNN-DDLGOASUDN

>  <SMILES>
Cc1cc2c(cc1C)N(C3=NC(=O)NC(=O)C3=N2)C[C@@H]([C@@H]([C@@H](COP(=O)(O)O)O)O)O

$$$$
