untitled
  ChemPy            3D                             0

 40 42  0  0  1  0  0  0  0  0999 V2000
   24.9980    6.1090    8.9750 P   0  0  0  0  0  0  0  0  0  0  0  0
   24.8620    6.8220   10.2830 O   0  0  0  0  0  0  0  0  0  0  0  0
   26.1470    6.5760    8.1150 O   0  5  0  0  0  0  0  0  0  0  0  0
   25.1590    4.6090    9.2650 O   0  0  0  0  0  0  0  0  0  0  0  0
   23.4170    5.7780    6.8840 C   0  0  0  0  0  0  0  0  0  0  0  0
   23.6430    6.3260    8.1710 O   0  0  0  0  0  0  0  0  0  0  0  0
   22.6710    4.4370    7.0030 C   0  0  0  0  0  0  0  0  0  0  0  0
   23.5600    3.4560    7.5130 O   0  0  0  0  0  0  0  0  0  0  0  0
   21.4670    4.5380    7.9300 C   0  0  0  0  0  0  0  0  0  0  0  0
   20.6220    5.6230    7.5550 O   0  0  0  0  0  0  0  0  0  0  0  0
   20.6240    3.2540    7.9080 C   0  0  0  0  0  0  0  0  0  0  0  0
   19.6550    3.2670    8.9210 O   0  0  0  0  0  0  0  0  0  0  0  0
   20.0160    3.0470    6.5550 C   0  0  0  0  0  0  0  0  0  0  0  0
   20.3670    0.4610    6.0770 N   0  0  0  0  0  0  0  0  0  0  0  0
   20.5840   -0.8480    5.6370 C   0  0  0  0  0  0  0  0  0  0  0  0
   21.7420   -1.2110    5.5380 O   0  0  0  0  0  0  0  0  0  0  0  0
   19.5540   -1.6640    5.1980 N   0  0  0  0  0  0  0  0  0  0  0  0
   18.2380   -1.2910    5.3260 C   0  0  0  0  0  0  0  0  0  0  0  0
   17.9210   -0.1110    6.2630 C   0  0  0  0  0  0  0  0  0  0  0  0
   17.2950   -2.0460    5.0400 O   0  0  0  0  0  0  0  0  0  0  0  0
   16.4800    1.8090    6.2900 C   0  0  0  0  0  0  0  0  0  0  0  0
   16.7260    0.4960    5.8080 N   0  0  0  0  0  0  0  0  0  0  0  0
   15.1720    2.2450    6.3750 C   0  0  0  0  0  0  0  0  0  0  0  0
   14.8730    3.5420    6.7940 C   0  0  0  0  0  0  0  0  0  0  0  0
   13.4610    4.0420    6.7460 C   0  0  0  0  0  0  0  0  0  0  0  0
   15.9150    4.3490    7.1840 C   0  0  0  0  0  0  0  0  0  0  0  0
   15.6680    5.7710    7.6230 C   0  0  0  0  0  0  0  0  0  0  0  0
   17.2240    3.9130    7.1380 C   0  0  0  0  0  0  0  0  0  0  0  0
   17.5420    2.6240    6.6530 C   0  0  0  0  0  0  0  0  0  0  0  0
   19.0740    0.8940    6.1480 C   0  0  0  0  0  0  0  0  0  0  0  0
   18.8370    2.1800    6.6040 N   0  0  0  0  0  0  0  0  0  0  0  0
   19.7740   -2.5450    4.7780 H   0  0  0  0  0  0  0  0  0  0  0  0
   13.4260    5.0780    7.1140 H   0  0  0  0  0  0  0  0  0  0  0  0
   12.8250    3.4070    7.3800 H   0  0  0  0  0  0  0  0  0  0  0  0
   13.0950    4.0090    5.7090 H   0  0  0  0  0  0  0  0  0  0  0  0
   16.6240    6.2430    7.8930 H   0  0  0  0  0  0  0  0  0  0  0  0
   14.9990    5.7750    8.4960 H   0  0  0  0  0  0  0  0  0  0  0  0
   15.2010    6.3330    6.8010 H   0  0  0  0  0  0  0  0  0  0  0  0
   14.3540    1.5600    6.1080 H   0  0  0  0  0  0  0  0  0  0  0  0
   18.0300    4.5770    7.4830 H   0  0  0  0  0  0  0  0  0  0  0  0
  1  2  1  0  0  0  0
  1  3  1  0  0  0  0
  1  4  2  0  0  0  0
  5  6  1  0  0  0  0
  6  1  1  0  0  0  0
  7  5  1  0  0  0  0
  7  8  1  0  0  0  0
  9  7  1  0  0  0  0
  9 10  1  0  0  0  0
 11  9  1  0  0  0  0
 11 12  1  0  0  0  0
 13 11  1  0  0  0  0
 14 15  1  0  0  0  0
 14 30  1  0  0  0  0
 15 16  2  0  0  0  0
 15 17  1  0  0  0  0
 17 18  1  0  0  0  0
 17 32  1  0  0  0  0
 18 19  1  0  0  0  0
 18 20  1  0  0  0  0
 19 30  1  0  0  0  0
 21 23  4  0  0  0  0
 21 29  4  0  0  0  0
 22 19  1  0  0  0  0
 22 21  1  0  0  0  0
 23 24  4  0  0  0  0
 23 39  1  0  0  0  0
 24 25  1  0  0  0  0
 24 26  4  0  0  0  0
 25 33  1  0  0  0  0
 25 34  1  0  0  0  0
 25 35  1  0  0  0  0
 26 27  1  0  0  0  0
 26 28  4  0  0  0  0
 27 36  1  0  0  0  0
 27 37  1  0  0  0  0
 27 38  1  0  0  0  0
 28 29  4  0  0  0  0
 28 40  1  0  0  0  0
 29 31  1  0  0  0  0
 31 13  1  0  0  0  0
 31 30  1  0  0  0  0
M  CHG  1   3  -1
M  END
