untitled
  ChemPy            3D                             0

 32 32  0  0  1  0  0  0  0  0999 V2000
   34.4660   27.8290   17.6990 N   0  3  0  0  0  0  0  0  0  0  0  0
   34.5570   26.6880   16.6990 C   0  0  0  0  0  0  0  0  0  0  0  0
   35.7480   25.8510   17.0640 C   0  0  0  0  0  0  0  0  0  0  0  0
   36.8120   26.4520   17.4190 O   0  0  0  0  0  0  0  0  0  0  0  0
   34.6430   27.3200   15.2880 C   0  0  0  0  0  0  0  0  0  0  0  0
   33.4060   28.1230   14.9750 C   0  0  0  0  0  0  0  0  0  0  0  0
   33.4030   29.5240   15.2540 C   0  0  0  0  0  0  0  0  0  0  0  0
   32.2570   27.4890   14.4750 C   0  0  0  0  0  0  0  0  0  0  0  0
   32.2670   30.2660   15.0550 C   0  0  0  0  0  0  0  0  0  0  0  0
   31.0800   28.1970   14.2520 C   0  0  0  0  0  0  0  0  0  0  0  0
   31.1050   29.6080   14.5740 C   0  0  0  0  0  0  0  0  0  0  0  0
   29.9670   30.3610   14.4290 O   0  0  0  0  0  0  0  0  0  0  0  0
   28.4820   29.9890   14.2250 P   0  0  0  0  0  0  0  0  0  0  0  0
   27.7780   31.2520   14.6640 O   0  5  0  0  0  0  0  0  0  0  0  0
   28.1760   28.7450   15.0350 O   0  5  0  0  0  0  0  0  0  0  0  0
   28.1950   29.7220   12.7500 O   0  0  0  0  0  0  0  0  0  0  0  0
   35.6980   24.5791   16.9340 N   0  0  0  0  0  0  0  0  0  0  0  0
   36.7405   23.6477   17.3525 C   0  0  0  0  0  0  0  0  0  0  0  0
   38.0463   23.9476   16.6567 C   0  0  0  0  0  0  0  0  0  0  0  0
   39.1500   23.8810   17.2750 O   0  0  0  0  0  0  0  0  0  0  0  0
   36.2972   22.1696   17.0848 C   0  0  0  0  0  0  0  0  0  0  0  0
   37.3115   21.0706   17.4683 C   0  0  0  0  0  0  0  0  0  0  0  0
   35.1306   21.8545   17.8339 O   0  0  0  0  0  0  0  0  0  0  0  0
   37.9637   24.4252   15.4009 N   0  0  0  0  0  0  0  0  0  0  0  0
   39.1992   24.5554   14.6348 C   0  0  0  0  0  0  0  0  0  0  0  0
   39.6251   26.0004   14.5345 C   0  0  0  0  0  0  0  0  0  0  0  0
   40.5380   26.3110   13.6620 O   0  0  0  0  0  0  0  0  0  0  0  0
   38.9990   23.9400   13.2188 C   0  0  0  0  0  0  0  0  0  0  0  0
   37.9775   24.6229   12.3028 C   0  0  0  0  0  0  0  0  0  0  0  0
   38.3478   24.9805   11.1031 N   0  0  0  0  0  0  0  0  0  0  0  0
   36.8236   24.8251   12.6507 O   0  0  0  0  0  0  0  0  0  0  0  0
   39.0457   26.8075   15.3250 N   0  0  0  0  0  0  0  0  0  0  0  0
  1  2  1  0  0  0  0
  2  3  1  0  0  0  0
  2  5  1  0  0  0  0
  3  4  2  0  0  0  0
  5  6  1  0  0  0  0
  6  7  4  0  0  0  0
  6  8  4  0  0  0  0
  7  9  4  0  0  0  0
  8 10  4  0  0  0  0
  9 11  4  0  0  0  0
 10 11  4  0  0  0  0
 11 12  1  0  0  0  0
 12 13  1  0  0  0  0
 13 14  1  0  0  0  0
 13 15  1  0  0  0  0
 13 16  2  0  0  0  0
 17 18  1  0  0  0  0
 18 19  1  0  0  0  0
 18 21  1  0  0  0  0
 19 20  2  0  0  0  0
 22 21  1  0  0  0  0
 23 21  1  0  0  0  0
 24 25  1  0  0  0  0
 25 26  1  0  0  0  0
 25 28  1  0  0  0  0
 26 27  2  0  0  0  0
 26 32  1  0  0  0  0
 29 28  1  0  0  0  0
 30 29  1  0  0  0  0
 31 29  2  0  0  0  0
  3 17  1  0  0  0  0
 24 19  1  0  0  0  0
M  CHG  3   1  +1  14  -1  15  -1
M  END
$$$$
