CLR_2rh1_C_413.pdb
  PyMOL2.2          3D                             0

 28 31  0  0  1  0  0  0  0  0999 V2000
   -5.0110   -0.7930    0.2077 C   0  0  0  0  0  0  0  0  0  0  0  0
   -6.4894   -0.5106    0.4232 C   0  0  0  0  0  0  0  0  0  0  0  0
   -6.6770    0.9463    0.8791 C   0  0  1  0  0  0  0  0  0  0  0  0
   -6.1932    1.9202   -0.2011 C   0  0  0  0  0  0  0  0  0  0  0  0
   -4.7096    1.6670   -0.3335 C   0  0  0  0  0  0  0  0  0  0  0  0
   -3.8572    2.7052   -0.1623 C   0  0  0  0  0  0  0  0  0  0  0  0
   -2.3595    2.5845   -0.2579 C   0  0  0  0  0  0  0  0  0  0  0  0
   -1.9255    1.2852   -0.9086 C   0  0  2  0  0  0  0  0  0  0  0  0
   -2.7363    0.0860   -0.4074 C   0  0  1  0  0  0  0  0  0  0  0  0
   -4.2567    0.2445   -0.6495 C   0  0  1  0  0  0  0  0  0  0  0  0
   -2.1736   -1.2467   -0.9623 C   0  0  0  0  0  0  0  0  0  0  0  0
   -0.6708   -1.4037   -0.7301 C   0  0  0  0  0  0  0  0  0  0  0  0
    0.1146   -0.2212   -1.2650 C   0  0  1  0  0  0  0  0  0  0  0  0
   -0.4480    1.0225   -0.5970 C   0  0  1  0  0  0  0  0  0  0  0  0
    0.5444    2.1149   -0.9415 C   0  0  0  0  0  0  0  0  0  0  0  0
    1.8776    1.3647   -0.8909 C   0  0  0  0  0  0  0  0  0  0  0  0
    1.5777   -0.1520   -0.8746 C   0  0  2  0  0  0  0  0  0  0  0  0
    0.0012   -0.1128   -2.7956 C   0  0  0  0  0  0  0  0  0  0  0  0
   -4.6308    0.0290   -2.1163 C   0  0  0  0  0  0  0  0  0  0  0  0
    2.6124   -0.9585   -1.7043 C   0  0  2  0  0  0  0  0  0  0  0  0
    2.2064   -2.3780   -2.0941 C   0  0  0  0  0  0  0  0  0  0  0  0
    3.9331   -1.0462   -0.9312 C   0  0  0  0  0  0  0  0  0  0  0  0
    5.1590   -0.8628   -1.8236 C   0  0  0  0  0  0  0  0  0  0  0  0
    6.4182   -0.7114   -0.9680 C   0  0  0  0  0  0  0  0  0  0  0  0
    7.5549   -1.6023   -1.4321 C   0  0  0  0  0  0  0  0  0  0  0  0
    8.8871   -1.0696   -0.9169 C   0  0  0  0  0  0  0  0  0  0  0  0
    7.3225   -3.0405   -0.9848 C   0  0  0  0  0  0  0  0  0  0  0  0
   -7.9961    1.3249    1.3058 O   0  0  0  0  0  0  0  0  0  0  0  0
  1 10  1  0  0  0  0
  1  2  1  0  0  0  0
  2  3  1  0  0  0  0
  3  4  1  0  0  0  0
  3 28  1  6  0  0  0
  4  5  1  0  0  0  0
  5  6  2  0  0  0  0
  5 10  1  0  0  0  0
  6  7  1  0  0  0  0
  7  8  1  6  0  0  0
  8 14  1  0  0  0  0
  8  9  1  0  0  0  0
  9 10  1  6  0  0  0
  9 11  1  0  0  0  0
 10 19  1  6  0  0  0
 11 12  1  0  0  0  0
 12 13  1  0  0  0  0
 13 18  1  1  0  0  0
 13 14  1  1  0  0  0
 14 15  1  0  0  0  0
 15 16  1  0  0  0  0
 13 17  1  6  0  0  0
 16 17  1  0  0  0  0
 17 20  1  0  0  0  0
 20 21  1  6  0  0  0
 20 22  1  0  0  0  0
 22 23  1  0  0  0  0
 23 24  1  0  0  0  0
 24 25  1  0  0  0  0
 25 26  1  0  0  0  0
 25 27  1  0  0  0  0
M  END
$$$$
CLR_2zxe_A_3001.pdb
  PyMOL2.2          3D                             0

 28 31  0  0  1  0  0  0  0  0999 V2000
   -5.0810   -0.6643    0.3764 C   0  0  0  0  0  0  0  0  0  0  0  0
   -6.5871   -0.3674    0.4241 C   0  0  0  0  0  0  0  0  0  0  0  0
   -6.9181    1.1066    0.6608 C   0  0  1  0  0  0  0  0  0  0  0  0
   -6.2164    1.9764   -0.3805 C   0  0  0  0  0  0  0  0  0  0  0  0
   -4.7367    1.6550   -0.3936 C   0  0  0  0  0  0  0  0  0  0  0  0
   -3.8874    2.6805   -0.2110 C   0  0  0  0  0  0  0  0  0  0  0  0
   -2.3863    2.5242   -0.1193 C   0  0  0  0  0  0  0  0  0  0  0  0
   -1.9308    1.2473   -0.8171 C   0  0  2  0  0  0  0  0  0  0  0  0
   -2.7653    0.0447   -0.3404 C   0  0  1  0  0  0  0  0  0  0  0  0
   -4.2794    0.2146   -0.5975 C   0  0  1  0  0  0  0  0  0  0  0  0
   -2.2045   -1.2996   -0.8667 C   0  0  0  0  0  0  0  0  0  0  0  0
   -0.6718   -1.4682   -0.8447 C   0  0  0  0  0  0  0  0  0  0  0  0
    0.1017   -0.2409   -1.3316 C   0  0  1  0  0  0  0  0  0  0  0  0
   -0.4529    0.9460   -0.5482 C   0  0  1  0  0  0  0  0  0  0  0  0
    0.5717    2.0780   -0.6466 C   0  0  0  0  0  0  0  0  0  0  0  0
    1.8996    1.3297   -0.7596 C   0  0  0  0  0  0  0  0  0  0  0  0
    1.5884   -0.1699   -0.9277 C   0  0  2  0  0  0  0  0  0  0  0  0
   -0.0863   -0.0795   -2.8517 C   0  0  0  0  0  0  0  0  0  0  0  0
   -4.6011   -0.1818   -2.0414 C   0  0  0  0  0  0  0  0  0  0  0  0
    2.6902   -0.8824   -1.7453 C   0  0  2  0  0  0  0  0  0  0  0  0
    2.4160   -2.3624   -2.0134 C   0  0  0  0  0  0  0  0  0  0  0  0
    4.0428   -0.7457   -1.0403 C   0  0  0  0  0  0  0  0  0  0  0  0
    5.2557   -0.9058   -1.9562 C   0  0  0  0  0  0  0  0  0  0  0  0
    6.5452   -0.8620   -1.1333 C   0  0  0  0  0  0  0  0  0  0  0  0
    7.7981   -0.9394   -2.0036 C   0  0  0  0  0  0  0  0  0  0  0  0
    8.9388   -0.1197   -1.4092 C   0  0  0  0  0  0  0  0  0  0  0  0
    8.2399   -2.3851   -2.2112 C   0  0  0  0  0  0  0  0  0  0  0  0
   -8.3342    1.3073    0.5599 O   0  0  0  0  0  0  0  0  0  0  0  0
  1 10  1  0  0  0  0
  1  2  1  0  0  0  0
  2  3  1  0  0  0  0
  3  4  1  0  0  0  0
  3 28  1  6  0  0  0
  4  5  1  0  0  0  0
  5  6  2  0  0  0  0
  5 10  1  0  0  0  0
  6  7  1  0  0  0  0
  7  8  1  6  0  0  0
  8 14  1  0  0  0  0
  8  9  1  0  0  0  0
  9 10  1  6  0  0  0
  9 11  1  0  0  0  0
 10 19  1  6  0  0  0
 11 12  1  0  0  0  0
 12 13  1  0  0  0  0
 13 18  1  6  0  0  0
 13 14  1  1  0  0  0
 14 15  1  0  0  0  0
 15 16  1  0  0  0  0
 16 17  1  0  0  0  0
 13 17  1  6  0  0  0
 17 20  1  0  0  0  0
 20 21  1  1  0  0  0
 20 22  1  0  0  0  0
 22 23  1  0  0  0  0
 23 24  1  0  0  0  0
 24 25  1  0  0  0  0
 25 26  1  0  0  0  0
 25 27  1  0  0  0  0
M  END
$$$$
CLR_3d4s_A_403.pdb
  PyMOL2.2          3D                             0

 28 31  0  0  1  0  0  0  0  0999 V2000
   -5.0253   -0.6927    0.4134 C   0  0  0  0  0  0  0  0  0  0  0  0
   -6.5216   -0.5727    0.2239 C   0  0  0  0  0  0  0  0  0  0  0  0
   -6.9930    0.8545    0.4762 C   0  0  1  0  0  0  0  0  0  0  0  0
   -6.2083    1.8934   -0.3421 C   0  0  0  0  0  0  0  0  0  0  0  0
   -4.7284    1.6634   -0.3316 C   0  0  0  0  0  0  0  0  0  0  0  0
   -3.8888    2.7039   -0.1468 C   0  0  0  0  0  0  0  0  0  0  0  0
   -2.4106    2.5950   -0.1304 C   0  0  0  0  0  0  0  0  0  0  0  0
   -1.9634    1.3460   -0.8933 C   0  0  2  0  0  0  0  0  0  0  0  0
   -2.7198    0.1141   -0.3985 C   0  0  1  0  0  0  0  0  0  0  0  0
   -4.2567    0.2432   -0.5341 C   0  0  1  0  0  0  0  0  0  0  0  0
   -2.1769   -1.1935   -0.9722 C   0  0  0  0  0  0  0  0  0  0  0  0
   -0.6848   -1.3443   -0.8480 C   0  0  0  0  0  0  0  0  0  0  0  0
    0.1144   -0.1812   -1.4251 C   0  0  1  0  0  0  0  0  0  0  0  0
   -0.4639    1.0987   -0.7935 C   0  0  1  0  0  0  0  0  0  0  0  0
    0.6314    2.1581   -0.7885 C   0  0  0  0  0  0  0  0  0  0  0  0
    1.9283    1.3454   -0.8456 C   0  0  0  0  0  0  0  0  0  0  0  0
    1.5664   -0.1544   -0.8501 C   0  0  2  0  0  0  0  0  0  0  0  0
    0.0596   -0.1147   -2.9453 C   0  0  0  0  0  0  0  0  0  0  0  0
   -4.5952   -0.1999   -1.9701 C   0  0  0  0  0  0  0  0  0  0  0  0
    2.6184   -1.0573   -1.5181 C   0  0  2  0  0  0  0  0  0  0  0  0
    2.2272   -2.5263   -1.5443 C   0  0  0  0  0  0  0  0  0  0  0  0
    3.9728   -0.9344   -0.8414 C   0  0  0  0  0  0  0  0  0  0  0  0
    5.1037   -0.7969   -1.8428 C   0  0  0  0  0  0  0  0  0  0  0  0
    6.4253   -0.9142   -1.1096 C   0  0  0  0  0  0  0  0  0  0  0  0
    7.3495   -1.9697   -1.7116 C   0  0  0  0  0  0  0  0  0  0  0  0
    7.0326   -3.3501   -1.1668 C   0  0  0  0  0  0  0  0  0  0  0  0
    8.8009   -1.5933   -1.4824 C   0  0  0  0  0  0  0  0  0  0  0  0
   -8.3587    1.0001    0.0969 O   0  0  0  0  0  0  0  0  0  0  0  0
  1 10  1  0  0  0  0
  1  2  1  0  0  0  0
  2  3  1  0  0  0  0
  3  4  1  0  0  0  0
  3 28  1  6  0  0  0
  4  5  1  0  0  0  0
  5  6  2  0  0  0  0
  5 10  1  0  0  0  0
  6  7  1  0  0  0  0
  7  8  1  6  0  0  0
  8 14  1  0  0  0  0
  8  9  1  0  0  0  0
  9 10  1  6  0  0  0
  9 11  1  0  0  0  0
 10 19  1  6  0  0  0
 11 12  1  0  0  0  0
 12 13  1  0  0  0  0
 13 18  1  1  0  0  0
 13 14  1  1  0  0  0
 14 15  1  0  0  0  0
 15 16  1  0  0  0  0
 13 17  1  6  0  0  0
 16 17  1  0  0  0  0
 17 20  1  0  0  0  0
 20 21  1  6  0  0  0
 20 22  1  0  0  0  0
 22 23  1  0  0  0  0
 23 24  1  0  0  0  0
 24 25  1  0  0  0  0
 25 27  1  0  0  0  0
 25 26  1  0  0  0  0
M  END
$$$$
CLR_3ny9_A_1201.pdb
  PyMOL2.2          3D                             0

 28 31  0  0  1  0  0  0  0  0999 V2000
   -5.0633   -0.6631    0.2539 C   0  0  0  0  0  0  0  0  0  0  0  0
   -6.5392   -0.3397    0.5161 C   0  0  0  0  0  0  0  0  0  0  0  0
   -6.7193    1.1011    0.9775 C   0  0  1  0  0  0  0  0  0  0  0  0
   -6.1798    2.0443   -0.0980 C   0  0  0  0  0  0  0  0  0  0  0  0
   -4.7340    1.7552   -0.5503 C   0  0  1  0  0  0  0  0  0  0  0  0
   -3.7694    2.5133    0.3702 C   0  0  0  0  0  0  0  0  0  0  0  0
   -2.3506    2.5527   -0.1959 C   0  0  0  0  0  0  0  0  0  0  0  0
   -1.9246    1.2502   -0.8864 C   0  0  2  0  0  0  0  0  0  0  0  0
   -2.8263    0.0455   -0.5287 C   0  0  1  0  0  0  0  0  0  0  0  0
   -4.3556    0.2618   -0.7484 C   0  0  1  0  0  0  0  0  0  0  0  0
   -2.2725   -1.2715   -1.1315 C   0  0  0  0  0  0  0  0  0  0  0  0
   -0.7721   -1.5224   -0.8691 C   0  0  0  0  0  0  0  0  0  0  0  0
    0.1195   -0.3381   -1.2536 C   0  0  1  0  0  0  0  0  0  0  0  0
   -0.4601    0.9068   -0.5799 C   0  0  1  0  0  0  0  0  0  0  0  0
    0.6007    1.9915   -0.7431 C   0  0  0  0  0  0  0  0  0  0  0  0
    1.9020    1.2018   -0.5994 C   0  0  0  0  0  0  0  0  0  0  0  0
    1.5280   -0.2894   -0.6270 C   0  0  2  0  0  0  0  0  0  0  0  0
    0.1949   -0.2257   -2.7879 C   0  0  0  0  0  0  0  0  0  0  0  0
   -4.7411   -0.1685   -2.1651 C   0  0  0  0  0  0  0  0  0  0  0  0
    2.6582   -1.1879   -1.1785 C   0  0  2  0  0  0  0  0  0  0  0  0
    2.4436   -2.6647   -0.8183 C   0  0  0  0  0  0  0  0  0  0  0  0
    4.0589   -0.7249   -0.7298 C   0  0  0  0  0  0  0  0  0  0  0  0
    5.1716   -1.0837   -1.7196 C   0  0  0  0  0  0  0  0  0  0  0  0
    6.5396   -0.5354   -1.3050 C   0  0  0  0  0  0  0  0  0  0  0  0
    7.7105   -1.4824   -1.6031 C   0  0  0  0  0  0  0  0  0  0  0  0
    9.0164   -0.9601   -1.0091 C   0  0  0  0  0  0  0  0  0  0  0  0
    7.9132   -1.7530   -3.0896 C   0  0  0  0  0  0  0  0  0  0  0  0
   -8.1132    1.3515    1.1961 O   0  0  0  0  0  0  0  0  0  0  0  0
  1 10  1  0  0  0  0
  1  2  1  0  0  0  0
  2  3  1  0  0  0  0
  3  4  1  0  0  0  0
  3 28  1  6  0  0  0
  4  5  1  0  0  0  0
  5  6  1  0  0  0  0
  5 10  1  1  0  0  0
  6  7  1  0  0  0  0
  7  8  1  6  0  0  0
  8 14  1  0  0  0  0
  8  9  1  0  0  0  0
  9 10  1  6  0  0  0
  9 11  1  0  0  0  0
 10 19  1  1  0  0  0
 11 12  1  0  0  0  0
 12 13  1  0  0  0  0
 13 18  1  1  0  0  0
 13 14  1  1  0  0  0
 14 15  1  0  0  0  0
 15 16  1  0  0  0  0
 16 17  1  0  0  0  0
 13 17  1  6  0  0  0
 17 20  1  0  0  0  0
 20 21  1  6  0  0  0
 20 22  1  0  0  0  0
 22 23  1  0  0  0  0
 23 24  1  0  0  0  0
 24 25  1  0  0  0  0
 25 26  1  0  0  0  0
 25 27  1  0  0  0  0
M  END
$$$$
CLR_3wgu_B_3001.pdb
  PyMOL2.2          3D                             0

 28 31  0  0  1  0  0  0  0  0999 V2000
   -5.0029   -0.7145    0.1618 C   0  0  0  0  0  0  0  0  0  0  0  0
   -6.4666   -0.4557    0.1660 C   0  0  0  0  0  0  0  0  0  0  0  0
   -6.8016    0.8443    0.7438 C   0  0  1  0  0  0  0  0  0  0  0  0
   -6.2214    1.8960   -0.0990 C   0  0  0  0  0  0  0  0  0  0  0  0
   -4.7341    1.7048   -0.2349 C   0  0  0  0  0  0  0  0  0  0  0  0
   -3.7560    2.7039   -0.0375 C   0  0  0  0  0  0  0  0  0  0  0  0
   -2.2655    2.5288   -0.1759 C   0  0  0  0  0  0  0  0  0  0  0  0
   -1.9376    1.2295   -0.8728 C   0  0  2  0  0  0  0  0  0  0  0  0
   -2.8652    0.1513   -0.4075 C   0  0  1  0  0  0  0  0  0  0  0  0
   -4.1794    0.3228   -0.6074 C   0  0  1  0  0  0  0  0  0  0  0  0
   -2.1258   -1.3453   -0.8624 C   0  0  0  0  0  0  0  0  0  0  0  0
   -0.4843   -1.3152   -0.7399 C   0  0  0  0  0  0  0  0  0  0  0  0
    0.0489   -0.1721   -1.2295 C   0  0  1  0  0  0  0  0  0  0  0  0
   -0.5433    0.9425   -0.6895 C   0  0  1  0  0  0  0  0  0  0  0  0
    0.4907    2.0825   -1.0701 C   0  0  0  0  0  0  0  0  0  0  0  0
    1.9108    1.3130   -1.1242 C   0  0  0  0  0  0  0  0  0  0  0  0
    1.5374   -0.0999   -0.9172 C   0  0  2  0  0  0  0  0  0  0  0  0
   -0.1105   -0.1966   -2.6612 C   0  0  0  0  0  0  0  0  0  0  0  0
   -4.4346    0.0619   -2.0380 C   0  0  0  0  0  0  0  0  0  0  0  0
    2.5262   -0.9470   -1.5846 C   0  0  2  0  0  0  0  0  0  0  0  0
    2.2599   -2.4014   -1.4366 C   0  0  0  0  0  0  0  0  0  0  0  0
    3.8631   -0.6680   -0.9037 C   0  0  0  0  0  0  0  0  0  0  0  0
    5.1285   -1.2560   -1.6054 C   0  0  0  0  0  0  0  0  0  0  0  0
    6.4224   -0.6751   -0.9759 C   0  0  0  0  0  0  0  0  0  0  0  0
    7.6586   -1.1337   -1.7525 C   0  0  0  0  0  0  0  0  0  0  0  0
    7.8714   -2.6228   -1.6330 C   0  0  0  0  0  0  0  0  0  0  0  0
    8.8396   -0.5458   -1.0339 C   0  0  0  0  0  0  0  0  0  0  0  0
   -8.1547    1.0166    0.8077 O   0  0  0  0  0  0  0  0  0  0  0  0
  1 10  1  0  0  0  0
  1  2  1  0  0  0  0
  2  3  1  0  0  0  0
  3  4  1  0  0  0  0
  3 28  1  6  0  0  0
  4  5  1  0  0  0  0
  5  6  2  0  0  0  0
  5 10  1  0  0  0  0
  6  7  1  0  0  0  0
  7  8  1  6  0  0  0
  8 14  1  0  0  0  0
  8  9  1  0  0  0  0
  9 10  1  6  0  0  0
  9 11  1  0  0  0  0
 10 19  1  1  0  0  0
 11 12  1  0  0  0  0
 12 13  1  0  0  0  0
 13 18  1  1  0  0  0
 13 14  1  1  0  0  0
 14 15  1  0  0  0  0
 15 16  1  0  0  0  0
 16 17  1  0  0  0  0
 13 17  1  6  0  0  0
 17 20  1  0  0  0  0
 20 21  1  1  0  0  0
 20 22  1  0  0  0  0
 22 23  1  0  0  0  0
 23 24  1  0  0  0  0
 24 25  1  0  0  0  0
 25 26  1  0  0  0  0
 25 27  1  0  0  0  0
M  END
$$$$
CLR_4eiy_A_2405.pdb
  PyMOL2.2          3D                             0

 28 31  0  0  1  0  0  0  0  0999 V2000
   -5.0425   -0.7269    0.2000 C   0  0  0  0  0  0  0  0  0  0  0  0
   -6.5283   -0.5045    0.2094 C   0  0  0  0  0  0  0  0  0  0  0  0
   -6.9319    0.8989    0.6511 C   0  0  1  0  0  0  0  0  0  0  0  0
   -6.2447    1.8881   -0.2899 C   0  0  0  0  0  0  0  0  0  0  0  0
   -4.7484    1.6292   -0.3080 C   0  0  0  0  0  0  0  0  0  0  0  0
   -3.8685    2.6372   -0.0205 C   0  0  0  0  0  0  0  0  0  0  0  0
   -2.3552    2.5131   -0.0779 C   0  0  0  0  0  0  0  0  0  0  0  0
   -1.9128    1.2842   -0.8392 C   0  0  2  0  0  0  0  0  0  0  0  0
   -2.7471    0.0915   -0.3463 C   0  0  1  0  0  0  0  0  0  0  0  0
   -4.2396    0.2568   -0.6625 C   0  0  1  0  0  0  0  0  0  0  0  0
   -2.1405   -1.2420   -0.8317 C   0  0  0  0  0  0  0  0  0  0  0  0
   -0.6324   -1.3647   -0.6563 C   0  0  0  0  0  0  0  0  0  0  0  0
    0.1196   -0.2007   -1.2407 C   0  0  1  0  0  0  0  0  0  0  0  0
   -0.4365    1.0440   -0.5976 C   0  0  1  0  0  0  0  0  0  0  0  0
    0.5139    2.1358   -1.0705 C   0  0  0  0  0  0  0  0  0  0  0  0
    1.8546    1.4354   -1.0904 C   0  0  0  0  0  0  0  0  0  0  0  0
    1.5933   -0.0682   -0.8714 C   0  0  2  0  0  0  0  0  0  0  0  0
   -0.0765   -0.1498   -2.7745 C   0  0  0  0  0  0  0  0  0  0  0  0
   -4.5036    0.0504   -2.1675 C   0  0  0  0  0  0  0  0  0  0  0  0
    2.6309   -0.8825   -1.6414 C   0  0  2  0  0  0  0  0  0  0  0  0
    2.4773   -2.3977   -1.5338 C   0  0  0  0  0  0  0  0  0  0  0  0
    4.0207   -0.4693   -1.1399 C   0  0  0  0  0  0  0  0  0  0  0  0
    5.1898   -1.0639   -1.9136 C   0  0  0  0  0  0  0  0  0  0  0  0
    6.3808   -1.1958   -0.9582 C   0  0  0  0  0  0  0  0  0  0  0  0
    7.6330   -0.5881   -1.5453 C   0  0  0  0  0  0  0  0  0  0  0  0
    7.8264   -1.1004   -2.9673 C   0  0  0  0  0  0  0  0  0  0  0  0
    7.5910    0.9299   -1.5354 C   0  0  0  0  0  0  0  0  0  0  0  0
   -8.3598    0.9550    0.5850 O   0  0  0  0  0  0  0  0  0  0  0  0
  1  2  1  0  0  0  0
  2  3  1  0  0  0  0
  3 28  1  1  0  0  0
  3  4  1  0  0  0  0
  4  5  1  0  0  0  0
  5  6  2  0  0  0  0
  6  7  1  0  0  0  0
  7  8  1  1  0  0  0
  8  9  1  0  0  0  0
  9 10  1  1  0  0  0
  1 10  1  0  0  0  0
  5 10  1  0  0  0  0
 10 19  1  1  0  0  0
  9 11  1  0  0  0  0
 11 12  1  0  0  0  0
 12 13  1  0  0  0  0
 13 18  1  1  0  0  0
  8 14  1  0  0  0  0
 13 14  1  6  0  0  0
 14 15  1  0  0  0  0
 15 16  1  0  0  0  0
 16 17  1  0  0  0  0
 13 17  1  1  0  0  0
 17 20  1  0  0  0  0
 20 21  1  1  0  0  0
 20 22  1  0  0  0  0
 22 23  1  0  0  0  0
 23 24  1  0  0  0  0
 24 25  1  0  0  0  0
 25 26  1  0  0  0  0
 25 27  1  0  0  0  0
M  END
$$$$
CLR_4ntj_A_1202.pdb
  PyMOL2.2          3D                             0

 28 31  0  0  1  0  0  0  0  0999 V2000
   -4.9920   -0.6977    0.3582 C   0  0  0  0  0  0  0  0  0  0  0  0
   -6.4711   -0.4133    0.6752 C   0  0  0  0  0  0  0  0  0  0  0  0
   -6.7381    1.0413    1.0711 C   0  0  1  0  0  0  0  0  0  0  0  0
   -6.1956    2.0042    0.0088 C   0  0  0  0  0  0  0  0  0  0  0  0
   -4.7636    1.6666   -0.3993 C   0  0  2  0  0  0  0  0  0  0  0  0
   -3.9084    2.7040   -0.5151 C   0  0  0  0  0  0  0  0  0  0  0  0
   -2.4299    2.5371   -0.2401 C   0  0  0  0  0  0  0  0  0  0  0  0
   -1.9104    1.2966   -0.9640 C   0  0  2  0  0  0  0  0  0  0  0  0
   -2.7646    0.0594   -0.5680 C   0  0  1  0  0  0  0  0  0  0  0  0
   -4.3161    0.2221   -0.6843 C   0  0  1  0  0  0  0  0  0  0  0  0
   -2.1646   -1.2865   -1.0603 C   0  0  0  0  0  0  0  0  0  0  0  0
   -0.6255   -1.4305   -0.9851 C   0  0  0  0  0  0  0  0  0  0  0  0
    0.1781   -0.1895   -1.4323 C   0  0  1  0  0  0  0  0  0  0  0  0
   -0.4155    1.0114   -0.6838 C   0  0  1  0  0  0  0  0  0  0  0  0
    0.6319    2.1251   -0.6816 C   0  0  0  0  0  0  0  0  0  0  0  0
    1.9494    1.3520   -0.5998 C   0  0  0  0  0  0  0  0  0  0  0  0
    1.6234   -0.1269   -0.8928 C   0  0  2  0  0  0  0  0  0  0  0  0
    0.1676   -0.0587   -2.9716 C   0  0  0  0  0  0  0  0  0  0  0  0
   -4.8131   -0.1467   -2.0915 C   0  0  0  0  0  0  0  0  0  0  0  0
    2.7017   -1.0205   -1.5572 C   0  0  2  0  0  0  0  0  0  0  0  0
    3.0112   -2.2835   -0.7450 C   0  0  0  0  0  0  0  0  0  0  0  0
    3.9180   -0.3516   -2.2196 C   0  0  0  0  0  0  0  0  0  0  0  0
    5.2045   -0.3554   -1.3918 C   0  0  0  0  0  0  0  0  0  0  0  0
    6.4172    0.0688   -2.2260 C   0  0  0  0  0  0  0  0  0  0  0  0
    7.6974   -0.7597   -2.0503 C   0  0  0  0  0  0  0  0  0  0  0  0
    8.1534   -0.9958   -0.6086 C   0  0  0  0  0  0  0  0  0  0  0  0
    7.7519   -2.0135   -2.9196 C   0  0  0  0  0  0  0  0  0  0  0  0
   -8.1502    1.2470    1.2315 O   0  0  0  0  0  0  0  0  0  0  0  0
  1  2  1  0  0  0  0
  2  3  1  0  0  0  0
  3 28  1  1  0  0  0
  3  4  1  0  0  0  0
  4  5  1  0  0  0  0
  5 10  1  1  0  0  0
  5  6  1  0  0  0  0
  6  7  1  0  0  0  0
  7  8  1  1  0  0  0
  8  9  1  0  0  0  0
  9 10  1  1  0  0  0
  1 10  1  0  0  0  0
 10 19  1  1  0  0  0
  9 11  1  0  0  0  0
 11 12  1  0  0  0  0
 12 13  1  0  0  0  0
 13 18  1  1  0  0  0
  8 14  1  0  0  0  0
 13 14  1  6  0  0  0
 14 15  1  0  0  0  0
 15 16  1  0  0  0  0
 16 17  1  0  0  0  0
 13 17  1  1  0  0  0
 17 20  1  0  0  0  0
 20 21  1  6  0  0  0
 20 22  1  0  0  0  0
 22 23  1  0  0  0  0
 23 24  1  0  0  0  0
 24 25  1  0  0  0  0
 25 26  1  0  0  0  0
 25 27  1  0  0  0  0
M  END
$$$$
CLR_4or2_A_1902.pdb
  PyMOL2.2          3D                             0

 28 31  0  0  1  0  0  0  0  0999 V2000
   -5.1216   -0.7072    0.1537 C   0  0  0  0  0  0  0  0  0  0  0  0
   -6.6303   -0.4285    0.2095 C   0  0  0  0  0  0  0  0  0  0  0  0
   -6.9377    0.9091    0.8780 C   0  0  1  0  0  0  0  0  0  0  0  0
   -6.1142    2.0661    0.2919 C   0  0  0  0  0  0  0  0  0  0  0  0
   -4.7043    1.7211   -0.1877 C   0  0  2  0  0  0  0  0  0  0  0  0
   -3.8279    2.7546   -0.2091 C   0  0  0  0  0  0  0  0  0  0  0  0
   -2.3224    2.5733   -0.1416 C   0  0  0  0  0  0  0  0  0  0  0  0
   -1.8955    1.2944   -0.8689 C   0  0  2  0  0  0  0  0  0  0  0  0
   -2.7758    0.1118   -0.3992 C   0  0  1  0  0  0  0  0  0  0  0  0
   -4.2982    0.3114   -0.6522 C   0  0  1  0  0  0  0  0  0  0  0  0
   -2.2007   -1.2937   -0.7242 C   0  0  0  0  0  0  0  0  0  0  0  0
   -0.6645   -1.4472   -0.6727 C   0  0  0  0  0  0  0  0  0  0  0  0
    0.1281   -0.3233   -1.3605 C   0  0  1  0  0  0  0  0  0  0  0  0
   -0.4056    0.9524   -0.7009 C   0  0  1  0  0  0  0  0  0  0  0  0
    0.6585    2.0269   -0.8239 C   0  0  0  0  0  0  0  0  0  0  0  0
    1.9679    1.2511   -0.8989 C   0  0  0  0  0  0  0  0  0  0  0  0
    1.6136   -0.2404   -0.9427 C   0  0  2  0  0  0  0  0  0  0  0  0
   -0.0410   -0.3864   -2.8957 C   0  0  0  0  0  0  0  0  0  0  0  0
   -4.6557    0.1119   -2.1362 C   0  0  0  0  0  0  0  0  0  0  0  0
    2.7280   -1.1173   -1.5636 C   0  0  2  0  0  0  0  0  0  0  0  0
    2.4759   -2.6253   -1.5086 C   0  0  0  0  0  0  0  0  0  0  0  0
    4.0573   -0.8907   -0.8437 C   0  0  0  0  0  0  0  0  0  0  0  0
    5.1919   -0.5614   -1.8030 C   0  0  0  0  0  0  0  0  0  0  0  0
    6.5212   -0.5653   -1.0579 C   0  0  0  0  0  0  0  0  0  0  0  0
    7.4624   -1.6279   -1.6005 C   0  0  0  0  0  0  0  0  0  0  0  0
    7.5463   -2.8250   -0.6565 C   0  0  0  0  0  0  0  0  0  0  0  0
    8.8290   -1.0058   -1.8554 C   0  0  0  0  0  0  0  0  0  0  0  0
   -8.3234    1.1831    0.6487 O   0  0  0  0  0  0  0  0  0  0  0  0
  1  2  1  0  0  0  0
  2  3  1  0  0  0  0
  3 28  1  1  0  0  0
  3  4  1  0  0  0  0
  4  5  1  0  0  0  0
  5 10  1  6  0  0  0
  5  6  1  0  0  0  0
  6  7  1  0  0  0  0
  7  8  1  1  0  0  0
  8  9  1  0  0  0  0
  9 10  1  1  0  0  0
  1 10  1  0  0  0  0
 10 19  1  6  0  0  0
  9 11  1  0  0  0  0
 11 12  1  0  0  0  0
 12 13  1  0  0  0  0
 13 18  1  6  0  0  0
  8 14  1  0  0  0  0
 13 14  1  6  0  0  0
 14 15  1  0  0  0  0
 15 16  1  0  0  0  0
 13 17  1  1  0  0  0
 16 17  1  0  0  0  0
 17 20  1  0  0  0  0
 20 21  1  1  0  0  0
 20 22  1  0  0  0  0
 22 23  1  0  0  0  0
 23 24  1  0  0  0  0
 24 25  1  0  0  0  0
 25 26  1  0  0  0  0
 25 27  1  0  0  0  0
M  END
$$$$
CLR_4or2_A_1905.pdb
  PyMOL2.2          3D                             0

 28 31  0  0  1  0  0  0  0  0999 V2000
   -4.9894   -0.6658    0.3935 C   0  0  0  0  0  0  0  0  0  0  0  0
   -6.4840   -0.4233    0.6834 C   0  0  0  0  0  0  0  0  0  0  0  0
   -7.0495    1.0019    0.5875 C   0  0  1  0  0  0  0  0  0  0  0  0
   -6.2346    1.9962   -0.2507 C   0  0  0  0  0  0  0  0  0  0  0  0
   -4.7510    1.6627   -0.3649 C   0  0  0  0  0  0  0  0  0  0  0  0
   -3.8907    2.6940   -0.2205 C   0  0  0  0  0  0  0  0  0  0  0  0
   -2.3929    2.5187   -0.0505 C   0  0  0  0  0  0  0  0  0  0  0  0
   -1.9072    1.3036   -0.8480 C   0  0  2  0  0  0  0  0  0  0  0  0
   -2.7453    0.0624   -0.4513 C   0  0  1  0  0  0  0  0  0  0  0  0
   -4.2811    0.2284   -0.6480 C   0  0  1  0  0  0  0  0  0  0  0  0
   -2.1377   -1.3049   -0.8793 C   0  0  0  0  0  0  0  0  0  0  0  0
   -0.5983   -1.4286   -0.8360 C   0  0  0  0  0  0  0  0  0  0  0  0
    0.1592   -0.2198   -1.4204 C   0  0  1  0  0  0  0  0  0  0  0  0
   -0.4019    1.0067   -0.6842 C   0  0  1  0  0  0  0  0  0  0  0  0
    0.6426    2.1172   -0.7353 C   0  0  0  0  0  0  0  0  0  0  0  0
    1.9589    1.3432   -0.7055 C   0  0  0  0  0  0  0  0  0  0  0  0
    1.6526   -0.1378   -1.0020 C   0  0  2  0  0  0  0  0  0  0  0  0
   -0.0363   -0.1618   -2.9535 C   0  0  0  0  0  0  0  0  0  0  0  0
   -4.6784   -0.1394   -2.0898 C   0  0  0  0  0  0  0  0  0  0  0  0
    2.7542   -0.8821   -1.8124 C   0  0  2  0  0  0  0  0  0  0  0  0
    2.6905   -2.4068   -1.7172 C   0  0  0  0  0  0  0  0  0  0  0  0
    4.1959   -0.4625   -1.5111 C   0  0  0  0  0  0  0  0  0  0  0  0
    4.9610   -0.0577   -2.7724 C   0  0  0  0  0  0  0  0  0  0  0  0
    6.3745   -0.6416   -2.7534 C   0  0  0  0  0  0  0  0  0  0  0  0
    7.4579    0.4187   -2.5670 C   0  0  0  0  0  0  0  0  0  0  0  0
    8.6668    0.1143   -3.4451 C   0  0  0  0  0  0  0  0  0  0  0  0
    7.8658    0.5735   -1.1026 C   0  0  0  0  0  0  0  0  0  0  0  0
   -8.3808    0.9167    0.0533 O   0  0  0  0  0  0  0  0  0  0  0  0
  1  2  1  0  0  0  0
  2  3  1  0  0  0  0
  3 28  1  1  0  0  0
  3  4  1  0  0  0  0
  4  5  1  0  0  0  0
  5  6  2  0  0  0  0
  6  7  1  0  0  0  0
  7  8  1  1  0  0  0
  8  9  1  0  0  0  0
  9 10  1  1  0  0  0
  1 10  1  0  0  0  0
  5 10  1  0  0  0  0
 10 19  1  6  0  0  0
  9 11  1  0  0  0  0
 11 12  1  0  0  0  0
 12 13  1  0  0  0  0
 13 18  1  6  0  0  0
  8 14  1  0  0  0  0
 13 14  1  6  0  0  0
 14 15  1  0  0  0  0
 15 16  1  0  0  0  0
 13 17  1  1  0  0  0
 16 17  1  0  0  0  0
 17 20  1  0  0  0  0
 20 21  1  6  0  0  0
 20 22  1  0  0  0  0
 22 23  1  0  0  0  0
 23 24  1  0  0  0  0
 24 25  1  0  0  0  0
 25 26  1  0  0  0  0
 25 27  1  0  0  0  0
M  END
$$$$
CLR_4res_A_2002.pdb
  PyMOL2.2          3D                             0

 28 31  0  0  1  0  0  0  0  0999 V2000
   -5.1265   -0.8083   -0.1988 C   0  0  0  0  0  0  0  0  0  0  0  0
   -6.5630   -0.5125    0.0689 C   0  0  0  0  0  0  0  0  0  0  0  0
   -6.6865    0.6832    0.9735 C   0  0  1  0  0  0  0  0  0  0  0  0
   -6.1122    1.8676    0.2939 C   0  0  0  0  0  0  0  0  0  0  0  0
   -4.6427    1.6144    0.1534 C   0  0  2  0  0  0  0  0  0  0  0  0
   -3.9479    2.8811   -0.3370 C   0  0  0  0  0  0  0  0  0  0  0  0
   -2.4420    2.7608   -0.3103 C   0  0  0  0  0  0  0  0  0  0  0  0
   -1.9482    1.4226   -0.8752 C   0  0  2  0  0  0  0  0  0  0  0  0
   -2.7547    0.1760   -0.4596 C   0  0  1  0  0  0  0  0  0  0  0  0
   -4.2796    0.3577   -0.6183 C   0  0  1  0  0  0  0  0  0  0  0  0
   -2.1191   -1.2361   -0.9100 C   0  0  0  0  0  0  0  0  0  0  0  0
   -0.6380   -1.3744   -0.6110 C   0  0  0  0  0  0  0  0  0  0  0  0
    0.1100   -0.1547   -1.3097 C   0  0  1  0  0  0  0  0  0  0  0  0
   -0.3763    1.1333   -0.7045 C   0  0  1  0  0  0  0  0  0  0  0  0
    0.6112    2.0857   -1.2690 C   0  0  0  0  0  0  0  0  0  0  0  0
    1.9111    1.3332   -1.1248 C   0  0  0  0  0  0  0  0  0  0  0  0
    1.5280   -0.1875   -0.8932 C   0  0  2  0  0  0  0  0  0  0  0  0
   -0.0544   -0.2026   -2.8353 C   0  0  0  0  0  0  0  0  0  0  0  0
   -4.5588    0.5009   -2.0912 C   0  0  0  0  0  0  0  0  0  0  0  0
    2.4908   -1.0284   -1.6427 C   0  0  2  0  0  0  0  0  0  0  0  0
    2.4127   -2.5780   -1.5543 C   0  0  0  0  0  0  0  0  0  0  0  0
    3.9380   -0.6244   -1.1602 C   0  0  0  0  0  0  0  0  0  0  0  0
    5.1451   -1.3938   -1.6876 C   0  0  0  0  0  0  0  0  0  0  0  0
    6.3585   -0.5336   -1.9889 C   0  0  0  0  0  0  0  0  0  0  0  0
    7.0217   -0.7645   -3.3363 C   0  0  0  0  0  0  0  0  0  0  0  0
    6.7805   -2.1510   -3.8797 C   0  0  0  0  0  0  0  0  0  0  0  0
    8.4518   -0.2675   -3.4005 C   0  0  0  0  0  0  0  0  0  0  0  0
   -8.0052    0.8935    1.2719 O   0  0  0  0  0  0  0  0  0  0  0  0
  1  2  1  0  0  0  0
  2  3  1  0  0  0  0
  3 28  1  1  0  0  0
  3  4  1  0  0  0  0
  4  5  1  0  0  0  0
  5 10  1  1  0  0  0
  5  6  1  0  0  0  0
  6  7  1  0  0  0  0
  7  8  1  6  0  0  0
  8  9  1  0  0  0  0
  9 10  1  1  0  0  0
  1 10  1  0  0  0  0
 10 19  1  1  0  0  0
  9 11  1  0  0  0  0
 11 12  1  0  0  0  0
 12 13  1  0  0  0  0
 13 18  1  1  0  0  0
  8 14  1  0  0  0  0
 13 14  1  1  0  0  0
 14 15  1  0  0  0  0
 15 16  1  0  0  0  0
 16 17  1  0  0  0  0
 13 17  1  1  0  0  0
 17 20  1  0  0  0  0
 20 21  1  6  0  0  0
 20 22  1  0  0  0  0
 22 23  1  0  0  0  0
 23 24  1  0  0  0  0
 24 25  1  0  0  0  0
 25 26  1  0  0  0  0
 25 27  1  0  0  0  0
M  END
$$$$
CLR_4xt1_A_401.pdb
  PyMOL2.2          3D                             0

 28 31  0  0  1  0  0  0  0  0999 V2000
   -5.0320   -0.6865    0.3468 C   0  0  0  0  0  0  0  0  0  0  0  0
   -6.5164   -0.4789    0.0648 C   0  0  0  0  0  0  0  0  0  0  0  0
   -6.8941    0.9619    0.4190 C   0  0  1  0  0  0  0  0  0  0  0  0
   -6.1030    1.9055   -0.4957 C   0  0  0  0  0  0  0  0  0  0  0  0
   -4.6412    1.6483   -0.3412 C   0  0  0  0  0  0  0  0  0  0  0  0
   -3.8393    2.6824   -0.1641 C   0  0  0  0  0  0  0  0  0  0  0  0
   -2.3741    2.5453   -0.0048 C   0  0  0  0  0  0  0  0  0  0  0  0
   -1.9058    1.2750   -0.7027 C   0  0  2  0  0  0  0  0  0  0  0  0
   -2.6947    0.0600   -0.1951 C   0  0  1  0  0  0  0  0  0  0  0  0
   -4.1907    0.2299   -0.5535 C   0  0  1  0  0  0  0  0  0  0  0  0
   -2.1505   -1.2514   -0.7781 C   0  0  0  0  0  0  0  0  0  0  0  0
   -0.6450   -1.4112   -0.5884 C   0  0  0  0  0  0  0  0  0  0  0  0
    0.0776   -0.1976   -1.1729 C   0  0  1  0  0  0  0  0  0  0  0  0
   -0.4332    1.0450   -0.4120 C   0  0  1  0  0  0  0  0  0  0  0  0
    0.5377    2.1224   -0.8626 C   0  0  0  0  0  0  0  0  0  0  0  0
    1.8882    1.4000   -0.8040 C   0  0  0  0  0  0  0  0  0  0  0  0
    1.6014   -0.1198   -0.9080 C   0  0  2  0  0  0  0  0  0  0  0  0
   -0.2023   -0.0394   -2.6847 C   0  0  0  0  0  0  0  0  0  0  0  0
   -4.4272   -0.1301   -2.0261 C   0  0  0  0  0  0  0  0  0  0  0  0
    2.4617   -0.7864   -1.9984 C   0  0  2  0  0  0  0  0  0  0  0  0
    2.5588   -2.2971   -1.7660 C   0  0  0  0  0  0  0  0  0  0  0  0
    3.8591   -0.1482   -2.0388 C   0  0  0  0  0  0  0  0  0  0  0  0
    4.8788   -1.1465   -2.5780 C   0  0  0  0  0  0  0  0  0  0  0  0
    6.2045   -0.9868   -1.8501 C   0  0  0  0  0  0  0  0  0  0  0  0
    6.9494    0.2385   -2.3788 C   0  0  0  0  0  0  0  0  0  0  0  0
    8.2250    0.4367   -1.5760 C   0  0  0  0  0  0  0  0  0  0  0  0
    7.2776    0.0489   -3.8552 C   0  0  0  0  0  0  0  0  0  0  0  0
   -8.2588    1.0963    0.1853 O   0  0  0  0  0  0  0  0  0  0  0  0
  1  2  1  0  0  0  0
  2  3  1  0  0  0  0
  3 28  1  1  0  0  0
  3  4  1  0  0  0  0
  4  5  1  0  0  0  0
  5  6  2  0  0  0  0
  6  7  1  0  0  0  0
  7  8  1  1  0  0  0
  8  9  1  0  0  0  0
  9 10  1  1  0  0  0
  1 10  1  0  0  0  0
  5 10  1  0  0  0  0
 10 19  1  6  0  0  0
  9 11  1  0  0  0  0
 11 12  1  0  0  0  0
 12 13  1  0  0  0  0
 13 18  1  6  0  0  0
  8 14  1  0  0  0  0
 13 14  1  6  0  0  0
 14 15  1  0  0  0  0
 15 16  1  0  0  0  0
 16 17  1  0  0  0  0
 13 17  1  1  0  0  0
 17 20  1  0  0  0  0
 20 21  1  6  0  0  0
 20 22  1  0  0  0  0
 22 23  1  0  0  0  0
 23 24  1  0  0  0  0
 24 25  1  0  0  0  0
 25 26  1  0  0  0  0
 25 27  1  0  0  0  0
M  END
$$$$
CLR_5avz_B_3001.pdb
  PyMOL2.2          3D                             0

 28 31  0  0  1  0  0  0  0  0999 V2000
   -5.1004   -0.6451    0.3481 C   0  0  0  0  0  0  0  0  0  0  0  0
   -6.6063   -0.3448    0.3855 C   0  0  0  0  0  0  0  0  0  0  0  0
   -6.9356    1.1313    0.6160 C   0  0  1  0  0  0  0  0  0  0  0  0
   -6.2264    1.9959   -0.4221 C   0  0  0  0  0  0  0  0  0  0  0  0
   -4.7464    1.6710   -0.4270 C   0  0  0  0  0  0  0  0  0  0  0  0
   -3.8955    2.6966   -0.2442 C   0  0  0  0  0  0  0  0  0  0  0  0
   -2.3952    2.5367   -0.1416 C   0  0  0  0  0  0  0  0  0  0  0  0
   -1.9412    1.2557   -0.8355 C   0  0  2  0  0  0  0  0  0  0  0  0
   -2.7793    0.0577   -0.3582 C   0  0  1  0  0  0  0  0  0  0  0  0
   -4.2911    0.2288   -0.6247 C   0  0  1  0  0  0  0  0  0  0  0  0
   -2.2194   -1.2892   -0.8791 C   0  0  0  0  0  0  0  0  0  0  0  0
   -0.6854   -1.4609   -0.8474 C   0  0  0  0  0  0  0  0  0  0  0  0
    0.0923   -0.2375   -1.3353 C   0  0  1  0  0  0  0  0  0  0  0  0
   -0.4643    0.9530   -0.5576 C   0  0  1  0  0  0  0  0  0  0  0  0
    0.5641    2.0824   -0.6529 C   0  0  0  0  0  0  0  0  0  0  0  0
    1.8915    1.3310   -0.7575 C   0  0  0  0  0  0  0  0  0  0  0  0
    1.5773   -0.1687   -0.9237 C   0  0  2  0  0  0  0  0  0  0  0  0
   -0.0870   -0.0788   -2.8566 C   0  0  0  0  0  0  0  0  0  0  0  0
   -4.6056   -0.1703   -2.0696 C   0  0  0  0  0  0  0  0  0  0  0  0
    2.6829   -0.8856   -1.7335 C   0  0  2  0  0  0  0  0  0  0  0  0
    2.4051   -2.3667   -1.9983 C   0  0  0  0  0  0  0  0  0  0  0  0
    4.0325   -0.7489   -1.0206 C   0  0  0  0  0  0  0  0  0  0  0  0
    5.2491   -0.9136   -1.9311 C   0  0  0  0  0  0  0  0  0  0  0  0
    6.5317   -0.8718   -1.1008 C   0  0  0  0  0  0  0  0  0  0  0  0
    7.7904   -0.9524   -1.9645 C   0  0  0  0  0  0  0  0  0  0  0  0
    8.9299   -0.1336   -1.3650 C   0  0  0  0  0  0  0  0  0  0  0  0
    8.2295   -2.3992   -2.1665 C   0  0  0  0  0  0  0  0  0  0  0  0
   -8.3494    1.3323    0.5067 O   0  0  0  0  0  0  0  0  0  0  0  0
  1 10  1  0  0  0  0
  1  2  1  0  0  0  0
  2  3  1  0  0  0  0
  3  4  1  0  0  0  0
  3 28  1  6  0  0  0
  4  5  1  0  0  0  0
  5  6  2  0  0  0  0
  5 10  1  0  0  0  0
  6  7  1  0  0  0  0
  7  8  1  6  0  0  0
  8 14  1  0  0  0  0
  8  9  1  0  0  0  0
  9 10  1  6  0  0  0
  9 11  1  0  0  0  0
 10 19  1  1  0  0  0
 11 12  1  0  0  0  0
 12 13  1  0  0  0  0
 13 18  1  6  0  0  0
 13 14  1  1  0  0  0
 14 15  1  0  0  0  0
 15 16  1  0  0  0  0
 16 17  1  0  0  0  0
 13 17  1  6  0  0  0
 17 20  1  0  0  0  0
 20 21  1  1  0  0  0
 20 22  1  0  0  0  0
 22 23  1  0  0  0  0
 23 24  1  0  0  0  0
 24 25  1  0  0  0  0
 25 26  1  0  0  0  0
 25 27  1  0  0  0  0
M  END
$$$$
CLR_5aw7_B_3001.pdb
  PyMOL2.2          3D                             0

 28 31  0  0  1  0  0  0  0  0999 V2000
   -5.1013   -0.6457    0.3471 C   0  0  0  0  0  0  0  0  0  0  0  0
   -6.6060   -0.3438    0.3863 C   0  0  0  0  0  0  0  0  0  0  0  0
   -6.9357    1.1315    0.6166 C   0  0  1  0  0  0  0  0  0  0  0  0
   -6.2272    1.9954   -0.4223 C   0  0  0  0  0  0  0  0  0  0  0  0
   -4.7462    1.6706   -0.4263 C   0  0  0  0  0  0  0  0  0  0  0  0
   -3.8953    2.6960   -0.2443 C   0  0  0  0  0  0  0  0  0  0  0  0
   -2.3960    2.5375   -0.1424 C   0  0  0  0  0  0  0  0  0  0  0  0
   -1.9395    1.2562   -0.8354 C   0  0  2  0  0  0  0  0  0  0  0  0
   -2.7789    0.0582   -0.3583 C   0  0  1  0  0  0  0  0  0  0  0  0
   -4.2911    0.2283   -0.6249 C   0  0  1  0  0  0  0  0  0  0  0  0
   -2.2183   -1.2894   -0.8792 C   0  0  0  0  0  0  0  0  0  0  0  0
   -0.6848   -1.4607   -0.8484 C   0  0  0  0  0  0  0  0  0  0  0  0
    0.0918   -0.2377   -1.3355 C   0  0  1  0  0  0  0  0  0  0  0  0
   -0.4645    0.9530   -0.5581 C   0  0  1  0  0  0  0  0  0  0  0  0
    0.5656    2.0836   -0.6527 C   0  0  0  0  0  0  0  0  0  0  0  0
    1.8913    1.3312   -0.7573 C   0  0  0  0  0  0  0  0  0  0  0  0
    1.5769   -0.1684   -0.9233 C   0  0  2  0  0  0  0  0  0  0  0  0
   -0.0862   -0.0790   -2.8556 C   0  0  0  0  0  0  0  0  0  0  0  0
   -4.6068   -0.1709   -2.0688 C   0  0  0  0  0  0  0  0  0  0  0  0
    2.6824   -0.8857   -1.7341 C   0  0  2  0  0  0  0  0  0  0  0  0
    2.4051   -2.3667   -1.9988 C   0  0  0  0  0  0  0  0  0  0  0  0
    4.0316   -0.7490   -1.0200 C   0  0  0  0  0  0  0  0  0  0  0  0
    5.2487   -0.9133   -1.9300 C   0  0  0  0  0  0  0  0  0  0  0  0
    6.5318   -0.8726   -1.1017 C   0  0  0  0  0  0  0  0  0  0  0  0
    7.7905   -0.9539   -1.9656 C   0  0  0  0  0  0  0  0  0  0  0  0
    8.9297   -0.1344   -1.3657 C   0  0  0  0  0  0  0  0  0  0  0  0
    8.2309   -2.4000   -2.1678 C   0  0  0  0  0  0  0  0  0  0  0  0
   -8.3502    1.3330    0.5081 O   0  0  0  0  0  0  0  0  0  0  0  0
  1 10  1  0  0  0  0
  1  2  1  0  0  0  0
  2  3  1  0  0  0  0
  3  4  1  0  0  0  0
  3 28  1  6  0  0  0
  4  5  1  0  0  0  0
  5  6  2  0  0  0  0
  5 10  1  0  0  0  0
  6  7  1  0  0  0  0
  7  8  1  6  0  0  0
  8 14  1  0  0  0  0
  8  9  1  0  0  0  0
  9 10  1  6  0  0  0
  9 11  1  0  0  0  0
 10 19  1  1  0  0  0
 11 12  1  0  0  0  0
 12 13  1  0  0  0  0
 13 18  1  6  0  0  0
 13 14  1  1  0  0  0
 14 15  1  0  0  0  0
 15 16  1  0  0  0  0
 16 17  1  0  0  0  0
 13 17  1  6  0  0  0
 17 20  1  0  0  0  0
 20 21  1  1  0  0  0
 20 22  1  0  0  0  0
 22 23  1  0  0  0  0
 23 24  1  0  0  0  0
 24 25  1  0  0  0  0
 25 26  1  0  0  0  0
 25 27  1  0  0  0  0
M  END
$$$$
CLR_5aw8_B_3001.pdb
  PyMOL2.2          3D                             0

 28 31  0  0  1  0  0  0  0  0999 V2000
   -5.0812   -0.6645    0.3762 C   0  0  0  0  0  0  0  0  0  0  0  0
   -6.5873   -0.3676    0.4240 C   0  0  0  0  0  0  0  0  0  0  0  0
   -6.9186    1.1064    0.6613 C   0  0  1  0  0  0  0  0  0  0  0  0
   -6.2176    1.9770   -0.3806 C   0  0  0  0  0  0  0  0  0  0  0  0
   -4.7378    1.6548   -0.3927 C   0  0  0  0  0  0  0  0  0  0  0  0
   -3.8863    2.6822   -0.2117 C   0  0  0  0  0  0  0  0  0  0  0  0
   -2.3866    2.5248   -0.1198 C   0  0  0  0  0  0  0  0  0  0  0  0
   -1.9324    1.2459   -0.8174 C   0  0  2  0  0  0  0  0  0  0  0  0
   -2.7651    0.0446   -0.3397 C   0  0  1  0  0  0  0  0  0  0  0  0
   -4.2801    0.2144   -0.5968 C   0  0  1  0  0  0  0  0  0  0  0  0
   -2.2047   -1.2986   -0.8669 C   0  0  0  0  0  0  0  0  0  0  0  0
   -0.6711   -1.4682   -0.8443 C   0  0  0  0  0  0  0  0  0  0  0  0
    0.1013   -0.2406   -1.3329 C   0  0  1  0  0  0  0  0  0  0  0  0
   -0.4531    0.9448   -0.5487 C   0  0  1  0  0  0  0  0  0  0  0  0
    0.5733    2.0778   -0.6460 C   0  0  0  0  0  0  0  0  0  0  0  0
    1.9008    1.3300   -0.7590 C   0  0  0  0  0  0  0  0  0  0  0  0
    1.5894   -0.1702   -0.9270 C   0  0  2  0  0  0  0  0  0  0  0  0
   -0.0862   -0.0789   -2.8528 C   0  0  0  0  0  0  0  0  0  0  0  0
   -4.6009   -0.1825   -2.0409 C   0  0  0  0  0  0  0  0  0  0  0  0
    2.6912   -0.8818   -1.7469 C   0  0  2  0  0  0  0  0  0  0  0  0
    2.4160   -2.3637   -2.0136 C   0  0  0  0  0  0  0  0  0  0  0  0
    4.0445   -0.7450   -1.0397 C   0  0  0  0  0  0  0  0  0  0  0  0
    5.2559   -0.9054   -1.9564 C   0  0  0  0  0  0  0  0  0  0  0  0
    6.5429   -0.8625   -1.1324 C   0  0  0  0  0  0  0  0  0  0  0  0
    7.7987   -0.9393   -2.0042 C   0  0  0  0  0  0  0  0  0  0  0  0
    8.9383   -0.1191   -1.4086 C   0  0  0  0  0  0  0  0  0  0  0  0
    8.2402   -2.3842   -2.2125 C   0  0  0  0  0  0  0  0  0  0  0  0
   -8.3337    1.3071    0.5584 O   0  0  0  0  0  0  0  0  0  0  0  0
  1 10  1  0  0  0  0
  1  2  1  0  0  0  0
  2  3  1  0  0  0  0
  3  4  1  0  0  0  0
  3 28  1  6  0  0  0
  4  5  1  0  0  0  0
  5  6  2  0  0  0  0
  5 10  1  0  0  0  0
  6  7  1  0  0  0  0
  7  8  1  6  0  0  0
  8 14  1  0  0  0  0
  8  9  1  0  0  0  0
  9 10  1  6  0  0  0
  9 11  1  0  0  0  0
 10 19  1  1  0  0  0
 11 12  1  0  0  0  0
 12 13  1  0  0  0  0
 13 18  1  6  0  0  0
 13 14  1  1  0  0  0
 14 15  1  0  0  0  0
 15 16  1  0  0  0  0
 16 17  1  0  0  0  0
 13 17  1  6  0  0  0
 17 20  1  0  0  0  0
 20 21  1  1  0  0  0
 20 22  1  0  0  0  0
 22 23  1  0  0  0  0
 23 24  1  0  0  0  0
 24 25  1  0  0  0  0
 25 26  1  0  0  0  0
 25 27  1  0  0  0  0
M  END
$$$$
CLR_5d5a_A_1208.pdb
  PyMOL2.2          3D                             0

 28 31  0  0  1  0  0  0  0  0999 V2000
   -4.9131   -0.7369    0.2738 C   0  0  0  0  0  0  0  0  0  0  0  0
   -6.4067   -0.6357    0.2398 C   0  0  0  0  0  0  0  0  0  0  0  0
   -6.8457    0.6390    0.6148 C   0  0  1  0  0  0  0  0  0  0  0  0
   -6.2126    1.7176   -0.2939 C   0  0  0  0  0  0  0  0  0  0  0  0
   -4.6656    1.6245   -0.2647 C   0  0  2  0  0  0  0  0  0  0  0  0
   -3.8474    2.6942   -0.7004 C   0  0  0  0  0  0  0  0  0  0  0  0
   -2.2137    2.4661   -0.3941 C   0  0  0  0  0  0  0  0  0  0  0  0
   -1.7618    1.2682   -0.6475 C   0  0  2  0  0  0  0  0  0  0  0  0
   -2.5541    0.2563   -0.2111 C   0  0  1  0  0  0  0  0  0  0  0  0
   -4.1722    0.4003   -0.5304 C   0  0  1  0  0  0  0  0  0  0  0  0
   -1.9414   -1.2432   -0.5528 C   0  0  0  0  0  0  0  0  0  0  0  0
   -0.7656   -1.3388   -0.9588 C   0  0  0  0  0  0  0  0  0  0  0  0
   -0.0653   -0.1643   -1.1710 C   0  0  1  0  0  0  0  0  0  0  0  0
   -0.6743    1.1024   -0.4653 C   0  0  1  0  0  0  0  0  0  0  0  0
    0.4151    2.2763   -0.8970 C   0  0  0  0  0  0  0  0  0  0  0  0
    1.9270    1.4325   -0.7730 C   0  0  0  0  0  0  0  0  0  0  0  0
    1.5776   -0.0745   -0.7444 C   0  0  2  0  0  0  0  0  0  0  0  0
   -0.0948    0.0747   -2.6866 C   0  0  0  0  0  0  0  0  0  0  0  0
   -4.3702    0.1247   -2.0092 C   0  0  0  0  0  0  0  0  0  0  0  0
    2.4645   -0.7607   -1.6014 C   0  0  2  0  0  0  0  0  0  0  0  0
    2.5301   -2.2606   -1.2700 C   0  0  0  0  0  0  0  0  0  0  0  0
    3.9252   -0.1589   -1.4046 C   0  0  0  0  0  0  0  0  0  0  0  0
    5.0205   -1.0079   -2.1203 C   0  0  0  0  0  0  0  0  0  0  0  0
    6.2662   -1.1174   -1.1859 C   0  0  0  0  0  0  0  0  0  0  0  0
    7.3911   -0.1334   -1.6211 C   0  0  0  0  0  0  0  0  0  0  0  0
    7.1106    1.2687   -1.0880 C   0  0  0  0  0  0  0  0  0  0  0  0
    8.7257   -0.6114   -1.0387 C   0  0  0  0  0  0  0  0  0  0  0  0
   -8.2982    0.6974    0.5091 O   0  0  0  0  0  0  0  0  0  0  0  0
  1 10  1  0  0  0  0
  1  2  1  0  0  0  0
  2  3  1  0  0  0  0
  3  4  1  0  0  0  0
  3 28  1  6  0  0  0
  4  5  1  0  0  0  0
  5  6  1  0  0  0  0
  5 10  1  1  0  0  0
  6  7  1  0  0  0  0
  7  8  1  6  0  0  0
  8 14  1  0  0  0  0
  8  9  1  0  0  0  0
  9 10  1  6  0  0  0
  9 11  1  0  0  0  0
 10 19  1  6  0  0  0
 11 12  2  0  0  0  0
 12 13  1  0  0  0  0
 13 18  1  1  0  0  0
 13 14  1  1  0  0  0
 14 15  1  0  0  0  0
 15 16  1  0  0  0  0
 13 17  1  6  0  0  0
 16 17  1  0  0  0  0
 17 20  1  0  0  0  0
 20 21  1  1  0  0  0
 20 22  1  0  0  0  0
 22 23  1  0  0  0  0
 23 24  1  0  0  0  0
 24 25  1  0  0  0  0
 25 27  1  0  0  0  0
 25 26  1  0  0  0  0
M  END
$$$$
CLR_5k2a_A_1205.pdb
  PyMOL2.2          3D                             0

 28 31  0  0  1  0  0  0  0  0999 V2000
   -4.9670   -0.7727    0.1351 C   0  0  0  0  0  0  0  0  0  0  0  0
   -6.4701   -0.5373    0.0912 C   0  0  0  0  0  0  0  0  0  0  0  0
   -6.8167    0.8123    0.7057 C   0  0  1  0  0  0  0  0  0  0  0  0
   -6.1670    1.9107   -0.1259 C   0  0  0  0  0  0  0  0  0  0  0  0
   -4.6845    1.6518   -0.2596 C   0  0  0  0  0  0  0  0  0  0  0  0
   -3.8295    2.6575   -0.0131 C   0  0  0  0  0  0  0  0  0  0  0  0
   -2.3577    2.6353   -0.3676 C   0  0  0  0  0  0  0  0  0  0  0  0
   -1.9097    1.2964   -0.9383 C   0  0  2  0  0  0  0  0  0  0  0  0
   -2.7219    0.1391   -0.3671 C   0  0  1  0  0  0  0  0  0  0  0  0
   -4.2074    0.2796   -0.6651 C   0  0  1  0  0  0  0  0  0  0  0  0
   -2.1939   -1.2083   -0.8628 C   0  0  0  0  0  0  0  0  0  0  0  0
   -0.6944   -1.3953   -0.6321 C   0  0  0  0  0  0  0  0  0  0  0  0
    0.0860   -0.2335   -1.2290 C   0  0  1  0  0  0  0  0  0  0  0  0
   -0.4470    1.0377   -0.6004 C   0  0  1  0  0  0  0  0  0  0  0  0
    0.5683    2.1136   -0.9623 C   0  0  0  0  0  0  0  0  0  0  0  0
    1.8955    1.3519   -0.9742 C   0  0  0  0  0  0  0  0  0  0  0  0
    1.5713   -0.1425   -0.8881 C   0  0  2  0  0  0  0  0  0  0  0  0
   -0.0986   -0.1834   -2.7433 C   0  0  0  0  0  0  0  0  0  0  0  0
   -4.4689    0.0902   -2.1540 C   0  0  0  0  0  0  0  0  0  0  0  0
    2.5217   -0.9581   -1.7688 C   0  0  2  0  0  0  0  0  0  0  0  0
    2.4133   -2.4658   -1.5531 C   0  0  0  0  0  0  0  0  0  0  0  0
    3.9712   -0.5349   -1.5419 C   0  0  0  0  0  0  0  0  0  0  0  0
    4.9134   -1.3545   -2.4211 C   0  0  0  0  0  0  0  0  0  0  0  0
    6.3509   -1.3921   -1.9064 C   0  0  0  0  0  0  0  0  0  0  0  0
    7.0283   -0.0246   -1.8944 C   0  0  0  0  0  0  0  0  0  0  0  0
    8.5117   -0.1757   -1.5803 C   0  0  0  0  0  0  0  0  0  0  0  0
    6.8356    0.7248   -3.2076 C   0  0  0  0  0  0  0  0  0  0  0  0
   -8.2376    0.9873    0.7065 O   0  0  0  0  0  0  0  0  0  0  0  0
  1  2  1  0  0  0  0
  2  3  1  0  0  0  0
  3 28  1  1  0  0  0
  3  4  1  0  0  0  0
  4  5  1  0  0  0  0
  5  6  2  0  0  0  0
  6  7  1  0  0  0  0
  7  8  1  1  0  0  0
  8  9  1  0  0  0  0
  9 10  1  1  0  0  0
  1 10  1  0  0  0  0
  5 10  1  0  0  0  0
 10 19  1  1  0  0  0
  9 11  1  0  0  0  0
 11 12  1  0  0  0  0
 12 13  1  0  0  0  0
 13 18  1  6  0  0  0
  8 14  1  0  0  0  0
 13 14  1  6  0  0  0
 14 15  1  0  0  0  0
 15 16  1  0  0  0  0
 16 17  1  0  0  0  0
 13 17  1  1  0  0  0
 17 20  1  0  0  0  0
 20 21  1  1  0  0  0
 20 22  1  0  0  0  0
 22 23  1  0  0  0  0
 23 24  1  0  0  0  0
 24 25  1  0  0  0  0
 25 26  1  0  0  0  0
 25 27  1  0  0  0  0
M  END
$$$$
CLR_5k2b_A_1205.pdb
  PyMOL2.2          3D                             0

 28 31  0  0  1  0  0  0  0  0999 V2000
   -4.9437   -0.7174    0.2986 C   0  0  0  0  0  0  0  0  0  0  0  0
   -6.4499   -0.4752    0.3491 C   0  0  0  0  0  0  0  0  0  0  0  0
   -6.7671    0.9384    0.8231 C   0  0  1  0  0  0  0  0  0  0  0  0
   -6.1559    1.9320   -0.1547 C   0  0  0  0  0  0  0  0  0  0  0  0
   -4.6797    1.6480   -0.2810 C   0  0  1  0  0  0  0  0  0  0  0  0
   -3.8165    2.6481   -0.0587 C   0  0  0  0  0  0  0  0  0  0  0  0
   -2.3572    2.6163   -0.4504 C   0  0  0  0  0  0  0  0  0  0  0  0
   -1.9211    1.2700   -1.0083 C   0  0  2  0  0  0  0  0  0  0  0  0
   -2.7230    0.1045   -0.4390 C   0  0  1  0  0  0  0  0  0  0  0  0
   -4.2293    0.2529   -0.6350 C   0  0  1  0  0  0  0  0  0  0  0  0
   -2.2125   -1.2235   -1.0046 C   0  0  0  0  0  0  0  0  0  0  0  0
   -0.7119   -1.4308   -0.7783 C   0  0  0  0  0  0  0  0  0  0  0  0
    0.0937   -0.2343   -1.2760 C   0  0  1  0  0  0  0  0  0  0  0  0
   -0.4695    1.0171   -0.6374 C   0  0  1  0  0  0  0  0  0  0  0  0
    0.5455    2.1064   -0.9564 C   0  0  0  0  0  0  0  0  0  0  0  0
    1.8789    1.3569   -0.9249 C   0  0  0  0  0  0  0  0  0  0  0  0
    1.5566   -0.1402   -0.8540 C   0  0  2  0  0  0  0  0  0  0  0  0
    0.0136   -0.1096   -2.7895 C   0  0  0  0  0  0  0  0  0  0  0  0
   -4.6225   -0.0372   -2.0801 C   0  0  0  0  0  0  0  0  0  0  0  0
    2.5575   -0.9637   -1.6689 C   0  0  2  0  0  0  0  0  0  0  0  0
    2.5231   -2.4504   -1.3212 C   0  0  0  0  0  0  0  0  0  0  0  0
    3.9656   -0.3987   -1.4842 C   0  0  0  0  0  0  0  0  0  0  0  0
    5.0612   -1.4371   -1.7136 C   0  0  0  0  0  0  0  0  0  0  0  0
    6.2194   -1.2200   -0.7442 C   0  0  0  0  0  0  0  0  0  0  0  0
    7.5605   -1.5574   -1.3860 C   0  0  0  0  0  0  0  0  0  0  0  0
    7.6063   -3.0147   -1.8295 C   0  0  0  0  0  0  0  0  0  0  0  0
    7.8611   -0.6217   -2.5503 C   0  0  0  0  0  0  0  0  0  0  0  0
   -8.1850    1.1275    0.8722 O   0  0  0  0  0  0  0  0  0  0  0  0
  1  2  1  0  0  0  0
  2  3  1  0  0  0  0
  3 28  1  1  0  0  0
  3  4  1  0  0  0  0
  4  5  1  0  0  0  0
  5 10  1  1  0  0  0
  5  6  1  0  0  0  0
  6  7  1  0  0  0  0
  7  8  1  1  0  0  0
  8  9  1  0  0  0  0
  9 10  1  1  0  0  0
  1 10  1  0  0  0  0
 10 19  1  1  0  0  0
  9 11  1  0  0  0  0
 11 12  1  0  0  0  0
 12 13  1  0  0  0  0
 13 18  1  6  0  0  0
  8 14  1  0  0  0  0
 13 14  1  6  0  0  0
 14 15  1  0  0  0  0
 15 16  1  0  0  0  0
 13 17  1  1  0  0  0
 16 17  1  0  0  0  0
 17 20  1  0  0  0  0
 20 21  1  6  0  0  0
 20 22  1  0  0  0  0
 22 23  1  0  0  0  0
 23 24  1  0  0  0  0
 24 25  1  0  0  0  0
 25 26  1  0  0  0  0
 25 27  1  0  0  0  0
M  END
$$$$
CLR_5olz_A_1205.pdb
  PyMOL2.2          3D                             0

 28 31  0  0  1  0  0  0  0  0999 V2000
   -5.0166   -0.8009    0.2045 C   0  0  0  0  0  0  0  0  0  0  0  0
   -6.5475   -0.6218    0.2209 C   0  0  0  0  0  0  0  0  0  0  0  0
   -6.9528    0.7729    0.6058 C   0  0  1  0  0  0  0  0  0  0  0  0
   -6.2287    1.8498   -0.2277 C   0  0  0  0  0  0  0  0  0  0  0  0
   -4.7391    1.6192   -0.2891 C   0  0  0  0  0  0  0  0  0  0  0  0
   -3.9021    2.6512   -0.0520 C   0  0  0  0  0  0  0  0  0  0  0  0
   -2.3882    2.6054   -0.1919 C   0  0  0  0  0  0  0  0  0  0  0  0
   -1.9287    1.3166   -0.8655 C   0  0  2  0  0  0  0  0  0  0  0  0
   -2.7521    0.1205   -0.3616 C   0  0  1  0  0  0  0  0  0  0  0  0
   -4.2568    0.2307   -0.6390 C   0  0  1  0  0  0  0  0  0  0  0  0
   -2.1582   -1.2011   -0.8535 C   0  0  0  0  0  0  0  0  0  0  0  0
   -0.6497   -1.2997   -0.6397 C   0  0  0  0  0  0  0  0  0  0  0  0
    0.1227   -0.1518   -1.2400 C   0  0  1  0  0  0  0  0  0  0  0  0
   -0.4574    1.0911   -0.5814 C   0  0  1  0  0  0  0  0  0  0  0  0
    0.5036    2.2119   -0.9769 C   0  0  0  0  0  0  0  0  0  0  0  0
    1.8434    1.4964   -1.1395 C   0  0  0  0  0  0  0  0  0  0  0  0
    1.6138   -0.0020   -0.9193 C   0  0  2  0  0  0  0  0  0  0  0  0
   -0.0548   -0.1246   -2.7870 C   0  0  0  0  0  0  0  0  0  0  0  0
   -4.5792   -0.0173   -2.1418 C   0  0  0  0  0  0  0  0  0  0  0  0
    2.6754   -0.8219   -1.6690 C   0  0  2  0  0  0  0  0  0  0  0  0
    2.5066   -2.3406   -1.5483 C   0  0  0  0  0  0  0  0  0  0  0  0
    4.0661   -0.4458   -1.1271 C   0  0  0  0  0  0  0  0  0  0  0  0
    5.2491   -1.1078   -1.8457 C   0  0  0  0  0  0  0  0  0  0  0  0
    6.4945   -0.9928   -0.9633 C   0  0  0  0  0  0  0  0  0  0  0  0
    7.7169   -0.3743   -1.6569 C   0  0  0  0  0  0  0  0  0  0  0  0
    7.3206    0.6956   -2.6715 C   0  0  0  0  0  0  0  0  0  0  0  0
    8.6941    0.2155   -0.6439 C   0  0  0  0  0  0  0  0  0  0  0  0
   -8.3623    0.9064    0.3997 O   0  0  0  0  0  0  0  0  0  0  0  0
  1  2  1  0  0  0  0
  2  3  1  0  0  0  0
  3 28  1  1  0  0  0
  3  4  1  0  0  0  0
  4  5  1  0  0  0  0
  5  6  2  0  0  0  0
  6  7  1  0  0  0  0
  7  8  1  6  0  0  0
  8  9  1  0  0  0  0
  9 10  1  1  0  0  0
  1 10  1  0  0  0  0
  5 10  1  0  0  0  0
 10 19  1  1  0  0  0
  9 11  1  0  0  0  0
 11 12  1  0  0  0  0
 12 13  1  0  0  0  0
 13 18  1  1  0  0  0
  8 14  1  0  0  0  0
 13 14  1  1  0  0  0
 14 15  1  0  0  0  0
 15 16  1  0  0  0  0
 16 17  1  0  0  0  0
 13 17  1  1  0  0  0
 17 20  1  0  0  0  0
 20 21  1  1  0  0  0
 20 22  1  0  0  0  0
 22 23  1  0  0  0  0
 23 24  1  0  0  0  0
 24 25  1  0  0  0  0
 25 26  1  0  0  0  0
 25 27  1  0  0  0  0
M  END
$$$$
CLR_5om1_A_1204.pdb
  PyMOL2.2          3D                             0

 28 31  0  0  1  0  0  0  0  0999 V2000
   -5.2159   -0.6683    0.0358 C   0  0  0  0  0  0  0  0  0  0  0  0
   -6.7279   -0.3598   -0.0706 C   0  0  0  0  0  0  0  0  0  0  0  0
   -7.0461    1.0708    0.2757 C   0  0  1  0  0  0  0  0  0  0  0  0
   -6.1875    2.0507   -0.5428 C   0  0  0  0  0  0  0  0  0  0  0  0
   -4.7173    1.7210   -0.4741 C   0  0  0  0  0  0  0  0  0  0  0  0
   -3.8488    2.7098   -0.1877 C   0  0  0  0  0  0  0  0  0  0  0  0
   -2.3359    2.5806   -0.2254 C   0  0  0  0  0  0  0  0  0  0  0  0
   -1.9035    1.2280   -0.7800 C   0  0  2  0  0  0  0  0  0  0  0  0
   -2.8340    0.1135   -0.2789 C   0  0  1  0  0  0  0  0  0  0  0  0
   -4.2933    0.2902   -0.7300 C   0  0  1  0  0  0  0  0  0  0  0  0
   -2.2529   -1.2665   -0.6017 C   0  0  0  0  0  0  0  0  0  0  0  0
   -0.7643   -1.4219   -0.2587 C   0  0  0  0  0  0  0  0  0  0  0  0
    0.1187   -0.3463   -0.8260 C   0  0  1  0  0  0  0  0  0  0  0  0
   -0.4841    0.9579   -0.3241 C   0  0  1  0  0  0  0  0  0  0  0  0
    0.5588    2.0209   -0.6658 C   0  0  0  0  0  0  0  0  0  0  0  0
    1.8797    1.2525   -0.6358 C   0  0  0  0  0  0  0  0  0  0  0  0
    1.5681   -0.2141   -0.3352 C   0  0  2  0  0  0  0  0  0  0  0  0
    0.1481   -0.4631   -2.3768 C   0  0  0  0  0  0  0  0  0  0  0  0
   -4.4414    0.0209   -2.2556 C   0  0  0  0  0  0  0  0  0  0  0  0
    2.6408   -1.1621   -0.8924 C   0  0  2  0  0  0  0  0  0  0  0  0
    2.7878   -2.4106   -0.0220 C   0  0  0  0  0  0  0  0  0  0  0  0
    4.0217   -0.4807   -1.0375 C   0  0  0  0  0  0  0  0  0  0  0  0
    5.1384   -1.4262   -1.5058 C   0  0  0  0  0  0  0  0  0  0  0  0
    6.4540   -0.6742   -1.7184 C   0  0  0  0  0  0  0  0  0  0  0  0
    7.5323   -1.5109   -2.4242 C   0  0  0  0  0  0  0  0  0  0  0  0
    8.7500   -0.6660   -2.7933 C   0  0  0  0  0  0  0  0  0  0  0  0
    7.9692   -2.7144   -1.5915 C   0  0  0  0  0  0  0  0  0  0  0  0
   -8.4310    1.3474    0.0081 O   0  0  0  0  0  0  0  0  0  0  0  0
  1  2  1  0  0  0  0
  2  3  1  0  0  0  0
  3 28  1  1  0  0  0
  3  4  1  0  0  0  0
  4  5  1  0  0  0  0
  5  6  2  0  0  0  0
  6  7  1  0  0  0  0
  7  8  1  1  0  0  0
  8  9  1  0  0  0  0
  9 10  1  1  0  0  0
  1 10  1  0  0  0  0
  5 10  1  0  0  0  0
 10 19  1  1  0  0  0
  9 11  1  0  0  0  0
 11 12  1  0  0  0  0
 12 13  1  0  0  0  0
 13 18  1  6  0  0  0
  8 14  1  0  0  0  0
 13 14  1  6  0  0  0
 14 15  1  0  0  0  0
 15 16  1  0  0  0  0
 16 17  1  0  0  0  0
 13 17  1  1  0  0  0
 17 20  1  0  0  0  0
 20 21  1  6  0  0  0
 20 22  1  0  0  0  0
 22 23  1  0  0  0  0
 23 24  1  0  0  0  0
 24 25  1  0  0  0  0
 25 26  1  0  0  0  0
 25 27  1  0  0  0  0
M  END
$$$$
CLR_6a94_B_3003.pdb
  PyMOL2.2          3D                             0

 28 31  0  0  1  0  0  0  0  0999 V2000
   -4.9893   -0.6524    0.4030 C   0  0  0  0  0  0  0  0  0  0  0  0
   -6.4903   -0.4128    0.2606 C   0  0  0  0  0  0  0  0  0  0  0  0
   -6.8617    1.0291    0.5855 C   0  0  1  0  0  0  0  0  0  0  0  0
   -6.1550    1.9386   -0.4067 C   0  0  0  0  0  0  0  0  0  0  0  0
   -4.6730    1.6491   -0.3428 C   0  0  0  0  0  0  0  0  0  0  0  0
   -3.8332    2.6686   -0.1018 C   0  0  0  0  0  0  0  0  0  0  0  0
   -2.3367    2.5066   -0.0137 C   0  0  0  0  0  0  0  0  0  0  0  0
   -1.9128    1.2681   -0.7782 C   0  0  2  0  0  0  0  0  0  0  0  0
   -2.7093    0.0686   -0.2835 C   0  0  1  0  0  0  0  0  0  0  0  0
   -4.2017    0.2292   -0.5561 C   0  0  1  0  0  0  0  0  0  0  0  0
   -2.1860   -1.2613   -0.8492 C   0  0  0  0  0  0  0  0  0  0  0  0
   -0.6669   -1.4384   -0.7538 C   0  0  0  0  0  0  0  0  0  0  0  0
    0.0405   -0.2150   -1.3236 C   0  0  1  0  0  0  0  0  0  0  0  0
   -0.4383    0.9880   -0.5416 C   0  0  1  0  0  0  0  0  0  0  0  0
    0.5524    2.0979   -0.8627 C   0  0  0  0  0  0  0  0  0  0  0  0
    1.8756    1.3478   -1.0218 C   0  0  0  0  0  0  0  0  0  0  0  0
    1.5526   -0.1443   -1.1479 C   0  0  2  0  0  0  0  0  0  0  0  0
   -0.2945   -0.0452   -2.8048 C   0  0  0  0  0  0  0  0  0  0  0  0
   -4.5108   -0.1690   -1.9947 C   0  0  0  0  0  0  0  0  0  0  0  0
    2.3422   -0.7849   -2.2841 C   0  0  2  0  0  0  0  0  0  0  0  0
    2.4217   -2.3012   -2.1438 C   0  0  0  0  0  0  0  0  0  0  0  0
    3.7388   -0.1837   -2.3970 C   0  0  0  0  0  0  0  0  0  0  0  0
    4.7440   -0.8908   -1.4919 C   0  0  0  0  0  0  0  0  0  0  0  0
    6.0682   -0.1304   -1.4633 C   0  0  0  0  0  0  0  0  0  0  0  0
    7.2263   -1.0349   -1.0608 C   0  0  0  0  0  0  0  0  0  0  0  0
    7.4540   -2.1110   -2.1182 C   0  0  0  0  0  0  0  0  0  0  0  0
    8.4991   -0.2337   -0.7948 C   0  0  0  0  0  0  0  0  0  0  0  0
   -8.2812    1.2090    0.4929 O   0  0  0  0  0  0  0  0  0  0  0  0
  1 10  1  0  0  0  0
  1  2  1  0  0  0  0
  2  3  1  0  0  0  0
  3  4  1  0  0  0  0
  3 28  1  6  0  0  0
  4  5  1  0  0  0  0
  5  6  2  0  0  0  0
  5 10  1  0  0  0  0
  6  7  1  0  0  0  0
  7  8  1  6  0  0  0
  8 14  1  0  0  0  0
  8  9  1  0  0  0  0
  9 10  1  6  0  0  0
  9 11  1  0  0  0  0
 10 19  1  1  0  0  0
 11 12  1  0  0  0  0
 12 13  1  0  0  0  0
 13 18  1  6  0  0  0
 13 14  1  1  0  0  0
 14 15  1  0  0  0  0
 15 16  1  0  0  0  0
 13 17  1  6  0  0  0
 16 17  1  0  0  0  0
 17 20  1  0  0  0  0
 20 21  1  1  0  0  0
 20 22  1  0  0  0  0
 22 23  1  0  0  0  0
 23 24  1  0  0  0  0
 24 25  1  0  0  0  0
 25 26  1  0  0  0  0
 25 27  1  0  0  0  0
M  END
$$$$
CLR_6b73_A_2002.pdb
  PyMOL2.2          3D                             0

 28 31  0  0  1  0  0  0  0  0999 V2000
   -5.1333   -0.7471    0.1283 C   0  0  0  0  0  0  0  0  0  0  0  0
   -6.6392   -0.4393    0.1386 C   0  0  0  0  0  0  0  0  0  0  0  0
   -6.9540    0.9833    0.6103 C   0  0  1  0  0  0  0  0  0  0  0  0
   -6.1900    2.0245   -0.2130 C   0  0  0  0  0  0  0  0  0  0  0  0
   -4.7094    1.6837   -0.3466 C   0  0  2  0  0  0  0  0  0  0  0  0
   -3.8445    2.7169   -0.2112 C   0  0  0  0  0  0  0  0  0  0  0  0
   -2.3631    2.5225    0.0476 C   0  0  0  0  0  0  0  0  0  0  0  0
   -1.8791    1.2535   -0.6513 C   0  0  2  0  0  0  0  0  0  0  0  0
   -2.7567    0.0564   -0.1795 C   0  0  1  0  0  0  0  0  0  0  0  0
   -4.2350    0.2471   -0.6464 C   0  0  1  0  0  0  0  0  0  0  0  0
   -2.1358   -1.3339   -0.5063 C   0  0  0  0  0  0  0  0  0  0  0  0
   -0.5973   -1.4425   -0.6141 C   0  0  0  0  0  0  0  0  0  0  0  0
    0.0751   -0.2375   -1.2973 C   0  0  1  0  0  0  0  0  0  0  0  0
   -0.3691    0.9817   -0.4747 C   0  0  1  0  0  0  0  0  0  0  0  0
    0.5953    2.1097   -0.8342 C   0  0  0  0  0  0  0  0  0  0  0  0
    1.9161    1.3727   -1.0544 C   0  0  0  0  0  0  0  0  0  0  0  0
    1.6008   -0.1393   -1.0728 C   0  0  2  0  0  0  0  0  0  0  0  0
   -0.2899   -0.2148   -2.8076 C   0  0  0  0  0  0  0  0  0  0  0  0
   -4.3986    0.0087   -2.1618 C   0  0  0  0  0  0  0  0  0  0  0  0
    2.6261   -0.9813   -1.8797 C   0  0  2  0  0  0  0  0  0  0  0  0
    2.3639   -2.4877   -1.9487 C   0  0  0  0  0  0  0  0  0  0  0  0
    4.0467   -0.7896   -1.3386 C   0  0  0  0  0  0  0  0  0  0  0  0
    5.0913   -0.5085   -2.4246 C   0  0  0  0  0  0  0  0  0  0  0  0
    5.8398    0.8126   -2.2457 C   0  0  0  0  0  0  0  0  0  0  0  0
    7.0794    0.6385   -1.3785 C   0  0  0  0  0  0  0  0  0  0  0  0
    6.9394    1.2148    0.0185 C   0  0  0  0  0  0  0  0  0  0  0  0
    8.4161    0.9747   -2.0335 C   0  0  0  0  0  0  0  0  0  0  0  0
   -8.3603    1.2185    0.4685 O   0  0  0  0  0  0  0  0  0  0  0  0
  1  2  1  0  0  0  0
  2  3  1  0  0  0  0
  3 28  1  1  0  0  0
  3  4  1  0  0  0  0
  4  5  1  0  0  0  0
  5 10  1  6  0  0  0
  5  6  1  0  0  0  0
  6  7  1  0  0  0  0
  7  8  1  1  0  0  0
  8  9  1  0  0  0  0
  9 10  1  1  0  0  0
  1 10  1  0  0  0  0
 10 19  1  1  0  0  0
  9 11  1  0  0  0  0
 11 12  1  0  0  0  0
 12 13  1  0  0  0  0
 13 18  1  1  0  0  0
  8 14  1  0  0  0  0
 13 14  1  6  0  0  0
 14 15  1  0  0  0  0
 15 16  1  0  0  0  0
 16 17  1  0  0  0  0
 13 17  1  1  0  0  0
 17 20  1  0  0  0  0
 20 21  1  1  0  0  0
 20 22  1  0  0  0  0
 22 23  1  0  0  0  0
 23 24  1  0  0  0  0
 24 25  1  0  0  0  0
 25 26  1  0  0  0  0
 25 27  1  0  0  0  0
M  END
$$$$
CLR_6co7_A_3000.pdb
  PyMOL2.2          3D                             0

 28 31  0  0  1  0  0  0  0  0999 V2000
   -5.0439   -0.6702    0.1664 C   0  0  0  0  0  0  0  0  0  0  0  0
   -6.3864   -0.0025    0.4552 C   0  0  0  0  0  0  0  0  0  0  0  0
   -6.9546    0.6813   -0.7828 C   0  0  1  0  0  0  0  0  0  0  0  0
   -6.0705    1.8642   -1.1612 C   0  0  0  0  0  0  0  0  0  0  0  0
   -4.6498    1.5873   -0.7338 C   0  0  0  0  0  0  0  0  0  0  0  0
   -3.8838    2.6160   -0.3382 C   0  0  0  0  0  0  0  0  0  0  0  0
   -2.4098    2.4801   -0.0526 C   0  0  0  0  0  0  0  0  0  0  0  0
   -1.8863    1.2397   -0.7515 C   0  0  2  0  0  0  0  0  0  0  0  0
   -2.7083    0.0258   -0.3363 C   0  0  1  0  0  0  0  0  0  0  0  0
   -4.1669    0.1546   -0.7690 C   0  0  1  0  0  0  0  0  0  0  0  0
   -2.1175   -1.2969   -0.8410 C   0  0  0  0  0  0  0  0  0  0  0  0
   -0.6154   -1.4394   -0.5893 C   0  0  0  0  0  0  0  0  0  0  0  0
    0.0699   -0.2118   -1.1566 C   0  0  1  0  0  0  0  0  0  0  0  0
   -0.4343    0.9863   -0.3907 C   0  0  1  0  0  0  0  0  0  0  0  0
    0.5662    2.0916   -0.6910 C   0  0  0  0  0  0  0  0  0  0  0  0
    1.8968    1.3544   -0.8538 C   0  0  0  0  0  0  0  0  0  0  0  0
    1.5778   -0.1338   -0.9990 C   0  0  2  0  0  0  0  0  0  0  0  0
   -0.2923   -0.0654   -2.6291 C   0  0  0  0  0  0  0  0  0  0  0  0
   -4.3129   -0.3562   -2.1972 C   0  0  0  0  0  0  0  0  0  0  0  0
    2.3212   -0.7601   -2.1700 C   0  0  2  0  0  0  0  0  0  0  0  0
    2.1415   -2.2726   -2.1825 C   0  0  0  0  0  0  0  0  0  0  0  0
    3.7963   -0.3792   -2.1298 C   0  0  0  0  0  0  0  0  0  0  0  0
    4.5541   -0.9258   -3.3351 C   0  0  0  0  0  0  0  0  0  0  0  0
    6.0096   -0.4734   -3.2987 C   0  0  0  0  0  0  0  0  0  0  0  0
    6.8020   -1.0455   -4.4693 C   0  0  0  0  0  0  0  0  0  0  0  0
    6.8165   -2.5682   -4.4276 C   0  0  0  0  0  0  0  0  0  0  0  0
    6.2590   -0.5387   -5.7997 C   0  0  0  0  0  0  0  0  0  0  0  0
   -6.9945   -0.2573   -1.8628 O   0  0  0  0  0  0  0  0  0  0  0  0
  1  2  1  0  0  0  0
  2  3  1  0  0  0  0
  3 28  1  6  0  0  0
  3  4  1  0  0  0  0
  4  5  1  0  0  0  0
  5  6  2  0  0  0  0
  6  7  1  0  0  0  0
  7  8  1  1  0  0  0
  8  9  1  0  0  0  0
  9 10  1  1  0  0  0
  1 10  1  0  0  0  0
  5 10  1  0  0  0  0
 10 19  1  1  0  0  0
  9 11  1  0  0  0  0
 11 12  1  0  0  0  0
 12 13  1  0  0  0  0
 13 18  1  1  0  0  0
  8 14  1  0  0  0  0
 13 14  1  6  0  0  0
 14 15  1  0  0  0  0
 15 16  1  0  0  0  0
 16 17  1  0  0  0  0
 13 17  1  1  0  0  0
 17 20  1  0  0  0  0
 20 21  1  6  0  0  0
 20 22  1  0  0  0  0
 22 23  1  0  0  0  0
 23 24  1  0  0  0  0
 24 25  1  0  0  0  0
 25 26  1  0  0  0  0
 25 27  1  0  0  0  0
M  END
$$$$
CLR_6iyc_C_303.pdb
  PyMOL2.2          3D                             0

 28 31  0  0  1  0  0  0  0  0999 V2000
   -5.0470   -0.7711    0.1364 C   0  0  0  0  0  0  0  0  0  0  0  0
   -6.5456   -0.4962    0.2645 C   0  0  0  0  0  0  0  0  0  0  0  0
   -6.8014    0.8545    0.8779 C   0  0  1  0  0  0  0  0  0  0  0  0
   -6.1750    1.9162   -0.0000 C   0  0  0  0  0  0  0  0  0  0  0  0
   -4.6955    1.6793   -0.2215 C   0  0  0  0  0  0  0  0  0  0  0  0
   -3.8283    2.6604   -0.0258 C   0  0  0  0  0  0  0  0  0  0  0  0
   -2.3606    2.5855   -0.3040 C   0  0  0  0  0  0  0  0  0  0  0  0
   -1.9261    1.2881   -0.9790 C   0  0  2  0  0  0  0  0  0  0  0  0
   -2.7488    0.1088   -0.4259 C   0  0  1  0  0  0  0  0  0  0  0  0
   -4.2744    0.2871   -0.6873 C   0  0  1  0  0  0  0  0  0  0  0  0
   -2.1800   -1.2509   -0.8720 C   0  0  0  0  0  0  0  0  0  0  0  0
   -0.6762   -1.3965   -0.5887 C   0  0  0  0  0  0  0  0  0  0  0  0
    0.1310   -0.2727   -1.2515 C   0  0  1  0  0  0  0  0  0  0  0  0
   -0.4489    1.0473   -0.7044 C   0  0  1  0  0  0  0  0  0  0  0  0
    0.5610    2.0912   -1.1553 C   0  0  0  0  0  0  0  0  0  0  0  0
    1.8889    1.4085   -0.8009 C   0  0  0  0  0  0  0  0  0  0  0  0
    1.6410   -0.1252   -0.8734 C   0  0  2  0  0  0  0  0  0  0  0  0
    0.0131   -0.3613   -2.7771 C   0  0  0  0  0  0  0  0  0  0  0  0
   -4.6438    0.1695   -2.1784 C   0  0  0  0  0  0  0  0  0  0  0  0
    2.7059   -0.8509   -1.7215 C   0  0  2  0  0  0  0  0  0  0  0  0
    2.8522   -2.3332   -1.3938 C   0  0  0  0  0  0  0  0  0  0  0  0
    4.0752   -0.1551   -1.6738 C   0  0  0  0  0  0  0  0  0  0  0  0
    4.9380   -0.4006   -2.8869 C   0  0  0  0  0  0  0  0  0  0  0  0
    6.3836    0.0048   -2.7159 C   0  0  0  0  0  0  0  0  0  0  0  0
    7.2795   -0.9959   -1.9787 C   0  0  0  0  0  0  0  0  0  0  0  0
    7.5700   -0.5526   -0.5527 C   0  0  0  0  0  0  0  0  0  0  0  0
    8.5744   -1.2433   -2.7364 C   0  0  0  0  0  0  0  0  0  0  0  0
   -8.2112    1.0925    0.9821 O   0  0  0  0  0  0  0  0  0  0  0  0
  1 10  1  0  0  0  0
  1  2  1  0  0  0  0
  2  3  1  0  0  0  0
  3  4  1  0  0  0  0
  3 28  1  6  0  0  0
  4  5  1  0  0  0  0
  5  6  2  0  0  0  0
  5 10  1  0  0  0  0
  6  7  1  0  0  0  0
  7  8  1  6  0  0  0
  8 14  1  0  0  0  0
  8  9  1  0  0  0  0
  9 10  1  6  0  0  0
  9 11  1  0  0  0  0
 10 19  1  6  0  0  0
 11 12  1  0  0  0  0
 12 13  1  0  0  0  0
 13 18  1  1  0  0  0
 13 14  1  1  0  0  0
 14 15  1  0  0  0  0
 15 16  1  0  0  0  0
 16 17  1  0  0  0  0
 13 17  1  6  0  0  0
 17 20  1  0  0  0  0
 20 21  1  1  0  0  0
 20 22  1  0  0  0  0
 22 23  1  0  0  0  0
 23 24  1  0  0  0  0
 24 25  1  0  0  0  0
 25 27  1  0  0  0  0
 25 26  1  0  0  0  0
M  END
$$$$
CLR_6lpj_A_2405.pdb
  PyMOL2.2          3D                             0

 28 31  0  0  1  0  0  0  0  0999 V2000
   -4.9621   -0.7230    0.2386 C   0  0  0  0  0  0  0  0  0  0  0  0
   -6.4736   -0.5319    0.1949 C   0  0  0  0  0  0  0  0  0  0  0  0
   -6.8647    0.8631    0.6190 C   0  0  1  0  0  0  0  0  0  0  0  0
   -6.1862    1.8882   -0.2515 C   0  0  0  0  0  0  0  0  0  0  0  0
   -4.6934    1.6742   -0.2959 C   0  0  0  0  0  0  0  0  0  0  0  0
   -3.8592    2.6728   -0.0710 C   0  0  0  0  0  0  0  0  0  0  0  0
   -2.3743    2.5721   -0.1303 C   0  0  0  0  0  0  0  0  0  0  0  0
   -1.9132    1.3090   -0.8552 C   0  0  2  0  0  0  0  0  0  0  0  0
   -2.7143    0.1020   -0.3616 C   0  0  1  0  0  0  0  0  0  0  0  0
   -4.2155    0.2706   -0.6630 C   0  0  1  0  0  0  0  0  0  0  0  0
   -2.1756   -1.2504   -0.8489 C   0  0  0  0  0  0  0  0  0  0  0  0
   -0.6729   -1.4217   -0.6725 C   0  0  0  0  0  0  0  0  0  0  0  0
    0.0668   -0.2338   -1.2761 C   0  0  1  0  0  0  0  0  0  0  0  0
   -0.4579    1.0367   -0.5920 C   0  0  1  0  0  0  0  0  0  0  0  0
    0.5296    2.1289   -0.9678 C   0  0  0  0  0  0  0  0  0  0  0  0
    1.8601    1.3894   -1.0649 C   0  0  0  0  0  0  0  0  0  0  0  0
    1.5670   -0.1281   -0.9116 C   0  0  2  0  0  0  0  0  0  0  0  0
   -0.1391   -0.1805   -2.8146 C   0  0  0  0  0  0  0  0  0  0  0  0
   -4.5168    0.0283   -2.1592 C   0  0  0  0  0  0  0  0  0  0  0  0
    2.5968   -0.9774   -1.6643 C   0  0  2  0  0  0  0  0  0  0  0  0
    2.3086   -2.4749   -1.5723 C   0  0  0  0  0  0  0  0  0  0  0  0
    4.0055   -0.6399   -1.1521 C   0  0  0  0  0  0  0  0  0  0  0  0
    5.1396   -1.3957   -1.7622 C   0  0  0  0  0  0  0  0  0  0  0  0
    6.4370   -1.1673   -1.0385 C   0  0  0  0  0  0  0  0  0  0  0  0
    7.6550   -0.9976   -1.9282 C   0  0  0  0  0  0  0  0  0  0  0  0
    7.6488    0.3563   -2.6176 C   0  0  0  0  0  0  0  0  0  0  0  0
    8.9315   -1.1884   -1.1270 C   0  0  0  0  0  0  0  0  0  0  0  0
   -8.2845    0.9707    0.5159 O   0  0  0  0  0  0  0  0  0  0  0  0
  1  2  1  0  0  0  0
  2  3  1  0  0  0  0
  3 28  1  1  0  0  0
  3  4  1  0  0  0  0
  4  5  1  0  0  0  0
  5  6  2  0  0  0  0
  6  7  1  0  0  0  0
  7  8  1  1  0  0  0
  8  9  1  0  0  0  0
  9 10  1  1  0  0  0
  1 10  1  0  0  0  0
  5 10  1  0  0  0  0
 10 19  1  1  0  0  0
  9 11  1  0  0  0  0
 11 12  1  0  0  0  0
 12 13  1  0  0  0  0
 13 18  1  1  0  0  0
  8 14  1  0  0  0  0
 13 14  1  6  0  0  0
 14 15  1  0  0  0  0
 15 16  1  0  0  0  0
 16 17  1  0  0  0  0
 13 17  1  1  0  0  0
 17 20  1  0  0  0  0
 20 21  1  1  0  0  0
 20 22  1  0  0  0  0
 22 23  1  0  0  0  0
 23 24  1  0  0  0  0
 24 25  1  0  0  0  0
 25 26  1  0  0  0  0
 25 27  1  0  0  0  0
M  END
$$$$
CLR_6lpk_A_2405.pdb
  PyMOL2.2          3D                             0

 28 31  0  0  1  0  0  0  0  0999 V2000
   -4.9464   -0.7222    0.2017 C   0  0  0  0  0  0  0  0  0  0  0  0
   -6.4564   -0.5607    0.1306 C   0  0  0  0  0  0  0  0  0  0  0  0
   -6.8723    0.8244    0.5424 C   0  0  1  0  0  0  0  0  0  0  0  0
   -6.1826    1.8758   -0.2908 C   0  0  0  0  0  0  0  0  0  0  0  0
   -4.6886    1.6684   -0.3127 C   0  0  0  0  0  0  0  0  0  0  0  0
   -3.8598    2.6686   -0.0884 C   0  0  0  0  0  0  0  0  0  0  0  0
   -2.3751    2.5647   -0.1355 C   0  0  0  0  0  0  0  0  0  0  0  0
   -1.9152    1.3154   -0.8853 C   0  0  2  0  0  0  0  0  0  0  0  0
   -2.7142    0.0985   -0.4135 C   0  0  1  0  0  0  0  0  0  0  0  0
   -4.2142    0.2706   -0.7017 C   0  0  1  0  0  0  0  0  0  0  0  0
   -2.1737   -1.2541   -0.8946 C   0  0  0  0  0  0  0  0  0  0  0  0
   -0.6728   -1.4332   -0.7121 C   0  0  0  0  0  0  0  0  0  0  0  0
    0.0678   -0.2324   -1.2838 C   0  0  1  0  0  0  0  0  0  0  0  0
   -0.4689    1.0319   -0.5970 C   0  0  1  0  0  0  0  0  0  0  0  0
    0.5323    2.1227   -0.9322 C   0  0  0  0  0  0  0  0  0  0  0  0
    1.8618    1.3797   -1.0147 C   0  0  0  0  0  0  0  0  0  0  0  0
    1.5621   -0.1380   -0.8909 C   0  0  2  0  0  0  0  0  0  0  0  0
   -0.1240   -0.1320   -2.8164 C   0  0  0  0  0  0  0  0  0  0  0  0
   -4.5474    0.0277   -2.1929 C   0  0  0  0  0  0  0  0  0  0  0  0
    2.6145   -0.9760   -1.6292 C   0  0  2  0  0  0  0  0  0  0  0  0
    2.3701   -2.4777   -1.5378 C   0  0  0  0  0  0  0  0  0  0  0  0
    4.0102   -0.6214   -1.1016 C   0  0  0  0  0  0  0  0  0  0  0  0
    5.1681   -1.1708   -1.8789 C   0  0  0  0  0  0  0  0  0  0  0  0
    6.4335   -1.1770   -1.0841 C   0  0  0  0  0  0  0  0  0  0  0  0
    7.7026   -0.8736   -1.8652 C   0  0  0  0  0  0  0  0  0  0  0  0
    7.7599    0.5862   -2.2940 C   0  0  0  0  0  0  0  0  0  0  0  0
    8.9277   -1.2362   -1.0397 C   0  0  0  0  0  0  0  0  0  0  0  0
   -8.2854    0.9251    0.3822 O   0  0  0  0  0  0  0  0  0  0  0  0
  1  2  1  0  0  0  0
  2  3  1  0  0  0  0
  3 28  1  1  0  0  0
  3  4  1  0  0  0  0
  4  5  1  0  0  0  0
  5  6  2  0  0  0  0
  6  7  1  0  0  0  0
  7  8  1  1  0  0  0
  8  9  1  0  0  0  0
  9 10  1  1  0  0  0
  1 10  1  0  0  0  0
  5 10  1  0  0  0  0
 10 19  1  1  0  0  0
  9 11  1  0  0  0  0
 11 12  1  0  0  0  0
 12 13  1  0  0  0  0
 13 18  1  1  0  0  0
  8 14  1  0  0  0  0
 13 14  1  6  0  0  0
 14 15  1  0  0  0  0
 15 16  1  0  0  0  0
 16 17  1  0  0  0  0
 13 17  1  1  0  0  0
 17 20  1  0  0  0  0
 20 21  1  1  0  0  0
 20 22  1  0  0  0  0
 22 23  1  0  0  0  0
 23 24  1  0  0  0  0
 24 25  1  0  0  0  0
 25 26  1  0  0  0  0
 25 27  1  0  0  0  0
M  END
$$$$
CLR_6lpl_A_2404.pdb
  PyMOL2.2          3D                             0

 28 31  0  0  1  0  0  0  0  0999 V2000
   -5.0767   -0.7907    0.1655 C   0  0  0  0  0  0  0  0  0  0  0  0
   -6.5958   -0.5909    0.1263 C   0  0  0  0  0  0  0  0  0  0  0  0
   -6.9946    0.8035    0.5745 C   0  0  1  0  0  0  0  0  0  0  0  0
   -6.2606    1.8567   -0.2138 C   0  0  0  0  0  0  0  0  0  0  0  0
   -4.7588    1.6489   -0.2700 C   0  0  0  0  0  0  0  0  0  0  0  0
   -3.9225    2.6580   -0.0499 C   0  0  0  0  0  0  0  0  0  0  0  0
   -2.4369    2.5992   -0.2323 C   0  0  0  0  0  0  0  0  0  0  0  0
   -1.9576    1.2988   -0.8911 C   0  0  2  0  0  0  0  0  0  0  0  0
   -2.7671    0.1042   -0.3448 C   0  0  1  0  0  0  0  0  0  0  0  0
   -4.2858    0.2519   -0.6605 C   0  0  1  0  0  0  0  0  0  0  0  0
   -2.1678   -1.2402   -0.7598 C   0  0  0  0  0  0  0  0  0  0  0  0
   -0.6463   -1.3475   -0.5907 C   0  0  0  0  0  0  0  0  0  0  0  0
    0.1093   -0.1957   -1.2584 C   0  0  1  0  0  0  0  0  0  0  0  0
   -0.4761    1.0771   -0.6185 C   0  0  1  0  0  0  0  0  0  0  0  0
    0.5201    2.1889   -0.9416 C   0  0  0  0  0  0  0  0  0  0  0  0
    1.8812    1.4650   -1.0194 C   0  0  0  0  0  0  0  0  0  0  0  0
    1.6035   -0.0595   -0.8777 C   0  0  2  0  0  0  0  0  0  0  0  0
   -0.0285   -0.2033   -2.7828 C   0  0  0  0  0  0  0  0  0  0  0  0
   -4.6100    0.1092   -2.1556 C   0  0  0  0  0  0  0  0  0  0  0  0
    2.6549   -0.9384   -1.5784 C   0  0  2  0  0  0  0  0  0  0  0  0
    2.2668   -2.4108   -1.5201 C   0  0  0  0  0  0  0  0  0  0  0  0
    4.0263   -0.7484   -0.9283 C   0  0  0  0  0  0  0  0  0  0  0  0
    5.2265   -1.0991   -1.7901 C   0  0  0  0  0  0  0  0  0  0  0  0
    6.5393   -0.9326   -1.0558 C   0  0  0  0  0  0  0  0  0  0  0  0
    7.7611   -1.7088   -1.5941 C   0  0  0  0  0  0  0  0  0  0  0  0
    7.8948   -3.0778   -0.9335 C   0  0  0  0  0  0  0  0  0  0  0  0
    7.7375   -1.8232   -3.1212 C   0  0  0  0  0  0  0  0  0  0  0  0
   -8.3955    0.9970    0.3567 O   0  0  0  0  0  0  0  0  0  0  0  0
  1  2  1  0  0  0  0
  2  3  1  0  0  0  0
  3 28  1  1  0  0  0
  3  4  1  0  0  0  0
  4  5  1  0  0  0  0
  5  6  2  0  0  0  0
  6  7  1  0  0  0  0
  7  8  1  1  0  0  0
  8  9  1  0  0  0  0
  9 10  1  1  0  0  0
  1 10  1  0  0  0  0
  5 10  1  0  0  0  0
 10 19  1  6  0  0  0
  9 11  1  0  0  0  0
 11 12  1  0  0  0  0
 12 13  1  0  0  0  0
 13 18  1  6  0  0  0
  8 14  1  0  0  0  0
 13 14  1  6  0  0  0
 14 15  1  0  0  0  0
 15 16  1  0  0  0  0
 16 17  1  0  0  0  0
 13 17  1  1  0  0  0
 17 20  1  0  0  0  0
 20 21  1  1  0  0  0
 20 22  1  0  0  0  0
 22 23  1  0  0  0  0
 23 24  1  0  0  0  0
 24 25  1  0  0  0  0
 25 26  1  0  0  0  0
 25 27  1  0  0  0  0
M  END
$$$$
CLR_6omm_R_405.pdb
  PyMOL2.2          3D                             0

 28 31  0  0  1  0  0  0  0  0999 V2000
   -4.9674   -0.7456    0.2499 C   0  0  0  0  0  0  0  0  0  0  0  0
   -6.4703   -0.4530    0.2749 C   0  0  0  0  0  0  0  0  0  0  0  0
   -6.6999    0.9140    0.9119 C   0  0  1  0  0  0  0  0  0  0  0  0
   -6.1356    1.9729   -0.0356 C   0  0  0  0  0  0  0  0  0  0  0  0
   -4.6556    1.6947   -0.2431 C   0  0  0  0  0  0  0  0  0  0  0  0
   -3.8295    2.6927   -0.1196 C   0  0  0  0  0  0  0  0  0  0  0  0
   -2.3402    2.5871   -0.2924 C   0  0  0  0  0  0  0  0  0  0  0  0
   -1.9199    1.2802   -0.9778 C   0  0  2  0  0  0  0  0  0  0  0  0
   -2.7171    0.1111   -0.3851 C   0  0  1  0  0  0  0  0  0  0  0  0
   -4.2144    0.3030   -0.5801 C   0  0  1  0  0  0  0  0  0  0  0  0
   -2.2376   -1.2349   -0.9318 C   0  0  0  0  0  0  0  0  0  0  0  0
   -0.7363   -1.4256   -0.6680 C   0  0  0  0  0  0  0  0  0  0  0  0
    0.0956   -0.2692   -1.2458 C   0  0  1  0  0  0  0  0  0  0  0  0
   -0.4587    1.0502   -0.6177 C   0  0  1  0  0  0  0  0  0  0  0  0
    0.5363    2.1021   -1.1152 C   0  0  0  0  0  0  0  0  0  0  0  0
    1.8782    1.3687   -0.8591 C   0  0  0  0  0  0  0  0  0  0  0  0
    1.5853   -0.1645   -0.8544 C   0  0  2  0  0  0  0  0  0  0  0  0
   -0.0878   -0.2075   -2.7687 C   0  0  0  0  0  0  0  0  0  0  0  0
   -4.5418    0.0879   -2.0624 C   0  0  0  0  0  0  0  0  0  0  0  0
    2.6112   -0.8958   -1.7561 C   0  0  2  0  0  0  0  0  0  0  0  0
    2.6369   -2.4164   -1.5542 C   0  0  0  0  0  0  0  0  0  0  0  0
    4.0277   -0.4235   -1.4118 C   0  0  0  0  0  0  0  0  0  0  0  0
    4.8763   -0.2796   -2.6743 C   0  0  0  0  0  0  0  0  0  0  0  0
    6.3089    0.1010   -2.2898 C   0  0  0  0  0  0  0  0  0  0  0  0
    6.3460    1.4837   -1.6349 C   0  0  0  0  0  0  0  0  0  0  0  0
    7.7703    1.7692   -1.1587 C   0  0  0  0  0  0  0  0  0  0  0  0
    5.9489    2.5440   -2.6659 C   0  0  0  0  0  0  0  0  0  0  0  0
   -8.1010    1.1278    1.0942 O   0  0  0  0  0  0  0  0  0  0  0  0
  1  2  1  0  0  0  0
  2  3  1  0  0  0  0
  3 28  1  6  0  0  0
  3  4  1  0  0  0  0
  4  5  1  0  0  0  0
  5 10  1  0  0  0  0
  5  6  2  0  0  0  0
  6  7  1  0  0  0  0
  7  8  1  6  0  0  0
  8  9  1  0  0  0  0
  8 14  1  0  0  0  0
  9 10  1  6  0  0  0
  9 11  1  0  0  0  0
  1 10  1  0  0  0  0
 10 19  1  6  0  0  0
 11 12  1  0  0  0  0
 12 13  1  0  0  0  0
 13 18  1  6  0  0  0
 13 14  1  1  0  0  0
 14 15  1  0  0  0  0
 15 16  1  0  0  0  0
 16 17  1  0  0  0  0
 13 17  1  6  0  0  0
 17 20  1  0  0  0  0
 20 21  1  1  0  0  0
 20 22  1  0  0  0  0
 22 23  1  0  0  0  0
 23 24  1  0  0  0  0
 24 25  1  0  0  0  0
 25 26  1  0  0  0  0
 25 27  1  0  0  0  0
M  END
$$$$
CLR_6pb1_P_401.pdb
  PyMOL2.2          3D                             0

 28 31  0  0  1  0  0  0  0  0999 V2000
   -4.9760   -0.7225    0.3447 C   0  0  0  0  0  0  0  0  0  0  0  0
   -6.4784   -0.4388    0.2570 C   0  0  0  0  0  0  0  0  0  0  0  0
   -6.7672    0.9615    0.7908 C   0  0  1  0  0  0  0  0  0  0  0  0
   -6.1295    1.9677   -0.1685 C   0  0  0  0  0  0  0  0  0  0  0  0
   -4.6383    1.6777   -0.2352 C   0  0  0  0  0  0  0  0  0  0  0  0
   -3.8210    2.6725   -0.0514 C   0  0  0  0  0  0  0  0  0  0  0  0
   -2.3257    2.5451   -0.0882 C   0  0  0  0  0  0  0  0  0  0  0  0
   -1.9004    1.2744   -0.8339 C   0  0  2  0  0  0  0  0  0  0  0  0
   -2.6895    0.0830   -0.2677 C   0  0  1  0  0  0  0  0  0  0  0  0
   -4.1834    0.2740   -0.5100 C   0  0  1  0  0  0  0  0  0  0  0  0
   -2.1840   -1.2586   -0.8138 C   0  0  0  0  0  0  0  0  0  0  0  0
   -0.6617   -1.4226   -0.6665 C   0  0  0  0  0  0  0  0  0  0  0  0
    0.0949   -0.2321   -1.2636 C   0  0  1  0  0  0  0  0  0  0  0  0
   -0.4213    1.0533   -0.5493 C   0  0  1  0  0  0  0  0  0  0  0  0
    0.5372    2.1290   -1.0743 C   0  0  0  0  0  0  0  0  0  0  0  0
    1.9045    1.3961   -1.0135 C   0  0  0  0  0  0  0  0  0  0  0  0
    1.6011   -0.1328   -0.9773 C   0  0  2  0  0  0  0  0  0  0  0  0
   -0.1860   -0.1247   -2.7722 C   0  0  0  0  0  0  0  0  0  0  0  0
   -4.4755   -0.0144   -1.9872 C   0  0  0  0  0  0  0  0  0  0  0  0
    2.4724   -0.9690   -1.9477 C   0  0  2  0  0  0  0  0  0  0  0  0
    2.8709   -2.2885   -1.2809 C   0  0  0  0  0  0  0  0  0  0  0  0
    3.7657   -0.2591   -2.3699 C   0  0  0  0  0  0  0  0  0  0  0  0
    4.4123   -1.0159   -3.5301 C   0  0  0  0  0  0  0  0  0  0  0  0
    5.7319   -0.3366   -3.9053 C   0  0  0  0  0  0  0  0  0  0  0  0
    6.4008   -1.0928   -5.0560 C   0  0  0  0  0  0  0  0  0  0  0  0
    7.7071   -0.3911   -5.4323 C   0  0  0  0  0  0  0  0  0  0  0  0
    6.7071   -2.5300   -4.6288 C   0  0  0  0  0  0  0  0  0  0  0  0
   -8.1790    1.1777    0.8459 O   0  0  0  0  0  0  0  0  0  0  0  0
  1  2  1  0  0  0  0
  2  3  1  0  0  0  0
  3 28  1  1  0  0  0
  3  4  1  0  0  0  0
  4  5  1  0  0  0  0
  5  6  2  0  0  0  0
  6  7  1  0  0  0  0
  7  8  1  1  0  0  0
  8  9  1  0  0  0  0
  9 10  1  1  0  0  0
  1 10  1  0  0  0  0
  5 10  1  0  0  0  0
 10 19  1  6  0  0  0
  9 11  1  0  0  0  0
 11 12  1  0  0  0  0
 12 13  1  0  0  0  0
 13 18  1  6  0  0  0
  8 14  1  0  0  0  0
 13 14  1  6  0  0  0
 14 15  1  0  0  0  0
 15 16  1  0  0  0  0
 16 17  1  0  0  0  0
 13 17  1  1  0  0  0
 17 20  1  0  0  0  0
 20 21  1  6  0  0  0
 20 22  1  0  0  0  0
 22 23  1  0  0  0  0
 23 24  1  0  0  0  0
 24 25  1  0  0  0  0
 25 26  1  0  0  0  0
 25 27  1  0  0  0  0
M  END
$$$$
CLR_6pb1_P_404.pdb
  PyMOL2.2          3D                             0

 28 31  0  0  1  0  0  0  0  0999 V2000
   -5.1566   -0.6487    0.0588 C   0  0  0  0  0  0  0  0  0  0  0  0
   -6.6141   -0.3579   -0.3095 C   0  0  0  0  0  0  0  0  0  0  0  0
   -6.9675    1.0819    0.0505 C   0  0  1  0  0  0  0  0  0  0  0  0
   -6.1382    2.0071   -0.8409 C   0  0  0  0  0  0  0  0  0  0  0  0
   -4.6661    1.7012   -0.6227 C   0  0  0  0  0  0  0  0  0  0  0  0
   -3.8667    2.6986   -0.3746 C   0  0  0  0  0  0  0  0  0  0  0  0
   -2.3917    2.5449   -0.1399 C   0  0  0  0  0  0  0  0  0  0  0  0
   -1.8816    1.2133   -0.7071 C   0  0  2  0  0  0  0  0  0  0  0  0
   -2.7859    0.0912   -0.1785 C   0  0  1  0  0  0  0  0  0  0  0  0
   -4.2021    0.2775   -0.7045 C   0  0  1  0  0  0  0  0  0  0  0  0
   -2.2293   -1.2999   -0.5031 C   0  0  0  0  0  0  0  0  0  0  0  0
   -0.7614   -1.4545   -0.0717 C   0  0  0  0  0  0  0  0  0  0  0  0
    0.1253   -0.3534   -0.6705 C   0  0  1  0  0  0  0  0  0  0  0  0
   -0.4701    1.0036   -0.1791 C   0  0  1  0  0  0  0  0  0  0  0  0
    0.5786    2.0157   -0.6484 C   0  0  0  0  0  0  0  0  0  0  0  0
    1.8911    1.2955   -0.2505 C   0  0  0  0  0  0  0  0  0  0  0  0
    1.5871   -0.2338   -0.1930 C   0  0  2  0  0  0  0  0  0  0  0  0
    0.0610   -0.4045   -2.2020 C   0  0  0  0  0  0  0  0  0  0  0  0
   -4.2193   -0.1042   -2.1901 C   0  0  0  0  0  0  0  0  0  0  0  0
    2.6208   -1.0510   -1.0086 C   0  0  2  0  0  0  0  0  0  0  0  0
    2.7052   -2.4973   -0.5036 C   0  0  0  0  0  0  0  0  0  0  0  0
    4.0296   -0.4461   -0.9036 C   0  0  0  0  0  0  0  0  0  0  0  0
    5.0460   -1.2397   -1.7236 C   0  0  0  0  0  0  0  0  0  0  0  0
    6.4387   -0.6788   -1.4366 C   0  0  0  0  0  0  0  0  0  0  0  0
    7.5076   -1.5161   -2.1395 C   0  0  0  0  0  0  0  0  0  0  0  0
    8.8841   -0.9385   -1.8092 C   0  0  0  0  0  0  0  0  0  0  0  0
    7.4447   -2.9646   -1.6466 C   0  0  0  0  0  0  0  0  0  0  0  0
   -8.3561    1.3110   -0.1934 O   0  0  0  0  0  0  0  0  0  0  0  0
  1 10  1  0  0  0  0
  1  2  1  0  0  0  0
  2  3  1  0  0  0  0
  3  4  1  0  0  0  0
  3 28  1  6  0  0  0
  4  5  1  0  0  0  0
  5  6  2  0  0  0  0
  5 10  1  0  0  0  0
  6  7  1  0  0  0  0
  7  8  1  6  0  0  0
  8 14  1  0  0  0  0
  8  9  1  0  0  0  0
  9 10  1  6  0  0  0
  9 11  1  0  0  0  0
 10 19  1  1  0  0  0
 11 12  1  0  0  0  0
 12 13  1  0  0  0  0
 13 18  1  1  0  0  0
 13 14  1  1  0  0  0
 14 15  1  0  0  0  0
 15 16  1  0  0  0  0
 13 17  1  6  0  0  0
 16 17  1  0  0  0  0
 17 20  1  0  0  0  0
 20 21  1  1  0  0  0
 20 22  1  0  0  0  0
 22 23  1  0  0  0  0
 23 24  1  0  0  0  0
 24 25  1  0  0  0  0
 25 26  1  0  0  0  0
 25 27  1  0  0  0  0
M  END
$$$$
CLR_6peq_G_201.pdb
  PyMOL2.2          3D                             0

 28 31  0  0  1  0  0  0  0  0999 V2000
   -5.0811   -0.7773    0.0555 C   0  0  0  0  0  0  0  0  0  0  0  0
   -6.5880   -0.5769    0.0261 C   0  0  0  0  0  0  0  0  0  0  0  0
   -6.9580    0.7230    0.7188 C   0  0  1  0  0  0  0  0  0  0  0  0
   -6.2152    1.8726   -0.0130 C   0  0  0  0  0  0  0  0  0  0  0  0
   -4.7318    1.6664   -0.2005 C   0  0  0  0  0  0  0  0  0  0  0  0
   -3.8820    2.7334   -0.0982 C   0  0  0  0  0  0  0  0  0  0  0  0
   -2.4000    2.6309   -0.1200 C   0  0  0  0  0  0  0  0  0  0  0  0
   -1.8927    1.3518   -0.7794 C   0  0  2  0  0  0  0  0  0  0  0  0
   -2.7496    0.1219   -0.2732 C   0  0  1  0  0  0  0  0  0  0  0  0
   -4.2439    0.3248   -0.6706 C   0  0  1  0  0  0  0  0  0  0  0  0
   -2.0930   -1.2201   -0.6552 C   0  0  0  0  0  0  0  0  0  0  0  0
   -0.5642   -1.2969   -0.4503 C   0  0  0  0  0  0  0  0  0  0  0  0
    0.1542   -0.1831   -1.2035 C   0  0  1  0  0  0  0  0  0  0  0  0
   -0.3713    1.1151   -0.5498 C   0  0  1  0  0  0  0  0  0  0  0  0
    0.6572    2.1551   -1.0280 C   0  0  0  0  0  0  0  0  0  0  0  0
    1.9786    1.3777   -1.2579 C   0  0  0  0  0  0  0  0  0  0  0  0
    1.7062   -0.1280   -1.0537 C   0  0  2  0  0  0  0  0  0  0  0  0
   -0.2093   -0.2240   -2.6892 C   0  0  0  0  0  0  0  0  0  0  0  0
   -4.3176    0.1178   -2.1864 C   0  0  0  0  0  0  0  0  0  0  0  0
    2.5311   -1.0728   -2.0120 C   0  0  2  0  0  0  0  0  0  0  0  0
    2.0663   -2.5177   -1.9417 C   0  0  0  0  0  0  0  0  0  0  0  0
    4.0598   -1.0137   -1.8148 C   0  0  0  0  0  0  0  0  0  0  0  0
    4.8888   -1.2084   -3.1002 C   0  0  0  0  0  0  0  0  0  0  0  0
    6.4075   -1.0106   -2.9202 C   0  0  0  0  0  0  0  0  0  0  0  0
    7.2317   -1.0259   -4.2335 C   0  0  0  0  0  0  0  0  0  0  0  0
    7.0444   -2.3682   -4.9434 C   0  0  0  0  0  0  0  0  0  0  0  0
    8.7278   -0.8010   -3.9956 C   0  0  0  0  0  0  0  0  0  0  0  0
   -8.3509    0.9080    0.6377 O   0  0  0  0  0  0  0  0  0  0  0  0
  1  2  1  0  0  0  0
  2  3  1  0  0  0  0
  3 28  1  1  0  0  0
  3  4  1  0  0  0  0
  4  5  1  0  0  0  0
  5  6  2  0  0  0  0
  6  7  1  0  0  0  0
  7  8  1  1  0  0  0
  8  9  1  0  0  0  0
  9 10  1  1  0  0  0
  1 10  1  0  0  0  0
  5 10  1  0  0  0  0
 10 19  1  6  0  0  0
  9 11  1  0  0  0  0
 11 12  1  0  0  0  0
 12 13  1  0  0  0  0
 13 18  1  6  0  0  0
  8 14  1  0  0  0  0
 13 14  1  6  0  0  0
 14 15  1  0  0  0  0
 15 16  1  0  0  0  0
 16 17  1  0  0  0  0
 13 17  1  1  0  0  0
 17 20  1  0  0  0  0
 20 21  1  1  0  0  0
 20 22  1  0  0  0  0
 22 23  1  0  0  0  0
 23 24  1  0  0  0  0
 24 25  1  0  0  0  0
 25 26  1  0  0  0  0
 25 27  1  0  0  0  0
M  END
$$$$
CLR_6ps6_A_1206.pdb
  PyMOL2.2          3D                             0

 28 31  0  0  1  0  0  0  0  0999 V2000
   -5.0528   -0.7612    0.2052 C   0  0  0  0  0  0  0  0  0  0  0  0
   -6.5110   -0.4182    0.5683 C   0  0  0  0  0  0  0  0  0  0  0  0
   -6.6911    1.0315    1.0261 C   0  0  1  0  0  0  0  0  0  0  0  0
   -6.2116    1.9715   -0.0784 C   0  0  0  0  0  0  0  0  0  0  0  0
   -4.7558    1.6612   -0.3899 C   0  0  1  0  0  0  0  0  0  0  0  0
   -3.8977    2.7062   -0.3531 C   0  0  0  0  0  0  0  0  0  0  0  0
   -2.4093    2.5223   -0.1277 C   0  0  0  0  0  0  0  0  0  0  0  0
   -1.9213    1.2878   -0.8931 C   0  0  2  0  0  0  0  0  0  0  0  0
   -2.7724    0.0673   -0.4531 C   0  0  1  0  0  0  0  0  0  0  0  0
   -4.3014    0.2236   -0.7217 C   0  0  1  0  0  0  0  0  0  0  0  0
   -2.1801   -1.2569   -1.0127 C   0  0  0  0  0  0  0  0  0  0  0  0
   -0.6491   -1.4191   -0.8681 C   0  0  0  0  0  0  0  0  0  0  0  0
    0.1676   -0.2171   -1.3844 C   0  0  1  0  0  0  0  0  0  0  0  0
   -0.4272    0.9980   -0.6580 C   0  0  1  0  0  0  0  0  0  0  0  0
    0.5788    2.1166   -0.9042 C   0  0  0  0  0  0  0  0  0  0  0  0
    1.9112    1.3844   -0.7683 C   0  0  0  0  0  0  0  0  0  0  0  0
    1.6236   -0.1299   -0.8472 C   0  0  2  0  0  0  0  0  0  0  0  0
    0.0828   -0.1502   -2.9328 C   0  0  0  0  0  0  0  0  0  0  0  0
   -4.6778   -0.0737   -2.1848 C   0  0  0  0  0  0  0  0  0  0  0  0
    2.7508   -0.9421   -1.5435 C   0  0  2  0  0  0  0  0  0  0  0  0
    2.6039   -2.4591   -1.3873 C   0  0  0  0  0  0  0  0  0  0  0  0
    4.1489   -0.5705   -1.0318 C   0  0  0  0  0  0  0  0  0  0  0  0
    5.1686   -0.3326   -2.1428 C   0  0  0  0  0  0  0  0  0  0  0  0
    6.5773   -0.3835   -1.5599 C   0  0  0  0  0  0  0  0  0  0  0  0
    7.6085   -0.9301   -2.5405 C   0  0  0  0  0  0  0  0  0  0  0  0
    8.9293   -0.1843   -2.3878 C   0  0  0  0  0  0  0  0  0  0  0  0
    7.8261   -2.4282   -2.3448 C   0  0  0  0  0  0  0  0  0  0  0  0
   -8.0630    1.2946    1.3394 O   0  0  0  0  0  0  0  0  0  0  0  0
  1 10  1  0  0  0  0
  1  2  1  0  0  0  0
  2  3  1  0  0  0  0
  3  4  1  0  0  0  0
  3 28  1  6  0  0  0
  4  5  1  0  0  0  0
  5  6  1  0  0  0  0
  5 10  1  6  0  0  0
  6  7  1  0  0  0  0
  7  8  1  6  0  0  0
  8 14  1  0  0  0  0
  8  9  1  0  0  0  0
  9 10  1  6  0  0  0
  9 11  1  0  0  0  0
 10 19  1  1  0  0  0
 11 12  1  0  0  0  0
 12 13  1  0  0  0  0
 13 18  1  1  0  0  0
 13 14  1  1  0  0  0
 14 15  1  0  0  0  0
 15 16  1  0  0  0  0
 13 17  1  6  0  0  0
 16 17  1  0  0  0  0
 17 20  1  0  0  0  0
 20 21  1  6  0  0  0
 20 22  1  0  0  0  0
 22 23  1  0  0  0  0
 23 24  1  0  0  0  0
 24 25  1  0  0  0  0
 25 26  1  0  0  0  0
 25 27  1  0  0  0  0
M  END
$$$$
CLR_6pt2_A_1201.pdb
  PyMOL2.2          3D                             0

 28 31  0  0  1  0  0  0  0  0999 V2000
   -5.1790   -0.6424    0.0668 C   0  0  0  0  0  0  0  0  0  0  0  0
   -6.6706   -0.3835   -0.1829 C   0  0  0  0  0  0  0  0  0  0  0  0
   -7.0273    1.0621    0.0945 C   0  0  1  0  0  0  0  0  0  0  0  0
   -6.1697    1.9882   -0.7547 C   0  0  0  0  0  0  0  0  0  0  0  0
   -4.6880    1.7219   -0.5753 C   0  0  0  0  0  0  0  0  0  0  0  0
   -3.8552    2.7195   -0.2844 C   0  0  0  0  0  0  0  0  0  0  0  0
   -2.3747    2.5795   -0.0919 C   0  0  0  0  0  0  0  0  0  0  0  0
   -1.8507    1.2558   -0.6431 C   0  0  2  0  0  0  0  0  0  0  0  0
   -2.7757    0.1038   -0.1865 C   0  0  1  0  0  0  0  0  0  0  0  0
   -4.2284    0.2691   -0.7408 C   0  0  1  0  0  0  0  0  0  0  0  0
   -2.1796   -1.2963   -0.4792 C   0  0  0  0  0  0  0  0  0  0  0  0
   -0.6716   -1.4645   -0.2361 C   0  0  0  0  0  0  0  0  0  0  0  0
    0.1912   -0.3199   -0.8088 C   0  0  1  0  0  0  0  0  0  0  0  0
   -0.4005    0.9780   -0.2061 C   0  0  1  0  0  0  0  0  0  0  0  0
    0.6872    2.0346   -0.4559 C   0  0  0  0  0  0  0  0  0  0  0  0
    2.0147    1.2636   -0.3867 C   0  0  0  0  0  0  0  0  0  0  0  0
    1.6469   -0.2341   -0.2778 C   0  0  2  0  0  0  0  0  0  0  0  0
    0.1540   -0.3389   -2.3568 C   0  0  0  0  0  0  0  0  0  0  0  0
   -4.3111   -0.0953   -2.2426 C   0  0  0  0  0  0  0  0  0  0  0  0
    2.7247   -1.1654   -0.8767 C   0  0  2  0  0  0  0  0  0  0  0  0
    2.9411   -2.4261   -0.0407 C   0  0  0  0  0  0  0  0  0  0  0  0
    4.0647   -0.4349   -1.1249 C   0  0  0  0  0  0  0  0  0  0  0  0
    5.0068   -1.0475   -2.1594 C   0  0  0  0  0  0  0  0  0  0  0  0
    6.3025   -1.5567   -1.5351 C   0  0  0  0  0  0  0  0  0  0  0  0
    7.5996   -1.3489   -2.3041 C   0  0  0  0  0  0  0  0  0  0  0  0
    8.5312   -0.3684   -1.6113 C   0  0  0  0  0  0  0  0  0  0  0  0
    8.3107   -2.6664   -2.5553 C   0  0  0  0  0  0  0  0  0  0  0  0
   -8.4197    1.2789   -0.1674 O   0  0  0  0  0  0  0  0  0  0  0  0
  1  2  1  0  0  0  0
  2  3  1  0  0  0  0
  3 28  1  1  0  0  0
  3  4  1  0  0  0  0
  4  5  1  0  0  0  0
  5  6  2  0  0  0  0
  6  7  1  0  0  0  0
  7  8  1  1  0  0  0
  8  9  1  0  0  0  0
  9 10  1  1  0  0  0
  1 10  1  0  0  0  0
  5 10  1  0  0  0  0
 10 19  1  6  0  0  0
  9 11  1  0  0  0  0
 11 12  1  0  0  0  0
 12 13  1  0  0  0  0
 13 18  1  1  0  0  0
  8 14  1  0  0  0  0
 13 14  1  6  0  0  0
 14 15  1  0  0  0  0
 15 16  1  0  0  0  0
 13 17  1  1  0  0  0
 16 17  1  0  0  0  0
 17 20  1  0  0  0  0
 20 21  1  6  0  0  0
 20 22  1  0  0  0  0
 22 23  1  0  0  0  0
 23 24  1  0  0  0  0
 24 25  1  0  0  0  0
 25 26  1  0  0  0  0
 25 27  1  0  0  0  0
M  END
$$$$
CLR_6s0q_A_1214.pdb
  PyMOL2.2          3D                             0

 28 31  0  0  1  0  0  0  0  0999 V2000
   -4.7569   -0.7054    0.4617 C   0  0  0  0  0  0  0  0  0  0  0  0
   -6.2983   -0.6221    0.4053 C   0  0  0  0  0  0  0  0  0  0  0  0
   -6.7768    0.8253    0.7334 C   0  0  1  0  0  0  0  0  0  0  0  0
   -6.1984    1.8761   -0.3346 C   0  0  0  0  0  0  0  0  0  0  0  0
   -4.6601    1.7748   -0.4200 C   0  0  1  0  0  0  0  0  0  0  0  0
   -3.8253    2.7515    0.0337 C   0  0  0  0  0  0  0  0  0  0  0  0
   -2.7401    2.6642   -0.2921 C   0  0  0  0  0  0  0  0  0  0  0  0
   -2.1805    1.0008   -0.1700 C   0  0  1  0  0  0  0  0  0  0  0  0
   -2.7867    0.2206   -0.7064 C   0  0  2  0  0  0  0  0  0  0  0  0
   -4.1200    0.3135   -0.6266 C   0  0  1  0  0  0  0  0  0  0  0  0
   -2.2824   -0.9548   -0.5520 C   0  0  0  0  0  0  0  0  0  0  0  0
   -0.7037   -1.1538   -1.0982 C   0  0  0  0  0  0  0  0  0  0  0  0
   -0.0262   -0.1074   -1.0058 C   0  0  1  0  0  0  0  0  0  0  0  0
   -0.4185    0.8968   -0.4866 C   0  0  1  0  0  0  0  0  0  0  0  0
    0.5841    2.1500   -1.0866 C   0  0  0  0  0  0  0  0  0  0  0  0
    1.9281    1.4908   -1.1502 C   0  0  0  0  0  0  0  0  0  0  0  0
    1.7742    0.0673   -0.9062 C   0  0  2  0  0  0  0  0  0  0  0  0
   -0.0498    0.1333   -2.5607 C   0  0  0  0  0  0  0  0  0  0  0  0
   -4.7564   -0.1431   -2.0156 C   0  0  0  0  0  0  0  0  0  0  0  0
    2.6292   -0.6756   -1.7830 C   0  0  2  0  0  0  0  0  0  0  0  0
    2.4884   -2.2010   -1.6750 C   0  0  0  0  0  0  0  0  0  0  0  0
    4.1198   -0.3332   -1.2622 C   0  0  0  0  0  0  0  0  0  0  0  0
    5.1027   -1.4386   -1.7204 C   0  0  0  0  0  0  0  0  0  0  0  0
    6.5037   -1.1571   -1.0757 C   0  0  0  0  0  0  0  0  0  0  0  0
    7.4451   -2.2443   -1.6719 C   0  0  0  0  0  0  0  0  0  0  0  0
    8.1274   -3.0047   -0.5258 C   0  0  0  0  0  0  0  0  0  0  0  0
    8.4719   -1.5684   -2.5992 C   0  0  0  0  0  0  0  0  0  0  0  0
   -8.1301    0.8672    0.7347 O   0  0  0  0  0  0  0  0  0  0  0  0
  1  2  1  0  0  0  0
  2  3  1  0  0  0  0
  3 28  1  1  0  0  0
  3  4  1  0  0  0  0
  4  5  1  0  0  0  0
  5 10  1  1  0  0  0
  5  6  1  0  0  0  0
  6  7  1  0  0  0  0
  7  8  1  1  0  0  0
  8  9  1  0  0  0  0
  9 10  1  1  0  0  0
  1 10  1  0  0  0  0
 10 19  1  1  0  0  0
  9 11  1  0  0  0  0
 11 12  1  0  0  0  0
 12 13  1  0  0  0  0
 13 18  1  1  0  0  0
  8 14  1  0  0  0  0
 13 14  1  1  0  0  0
 14 15  1  0  0  0  0
 15 16  1  0  0  0  0
 16 17  1  0  0  0  0
 13 17  1  1  0  0  0
 17 20  1  0  0  0  0
 20 21  1  1  0  0  0
 20 22  1  0  0  0  0
 22 23  1  0  0  0  0
 23 24  1  0  0  0  0
 24 25  1  0  0  0  0
 25 26  1  0  0  0  0
 25 27  1  0  0  0  0
M  END
$$$$
CLR_6s7p_A_1307.pdb
  PyMOL2.2          3D                             0

 28 31  0  0  1  0  0  0  0  0999 V2000
   -4.9921   -0.7862    0.1934 C   0  0  0  0  0  0  0  0  0  0  0  0
   -6.4882   -0.4747    0.1094 C   0  0  0  0  0  0  0  0  0  0  0  0
   -6.7791    0.8422    0.8215 C   0  0  1  0  0  0  0  0  0  0  0  0
   -6.1083    1.9583    0.0296 C   0  0  0  0  0  0  0  0  0  0  0  0
   -4.6273    1.6528   -0.1214 C   0  0  2  0  0  0  0  0  0  0  0  0
   -3.8555    2.6770   -0.3117 C   0  0  0  0  0  0  0  0  0  0  0  0
   -2.3611    2.5804   -0.4546 C   0  0  0  0  0  0  0  0  0  0  0  0
   -1.9227    1.2163   -0.9992 C   0  0  2  0  0  0  0  0  0  0  0  0
   -2.7065    0.0864   -0.3336 C   0  0  1  0  0  0  0  0  0  0  0  0
   -4.1972    0.2868   -0.5479 C   0  0  1  0  0  0  0  0  0  0  0  0
   -2.2215   -1.2598   -0.8630 C   0  0  0  0  0  0  0  0  0  0  0  0
   -0.7057   -1.4495   -0.6869 C   0  0  0  0  0  0  0  0  0  0  0  0
    0.1009   -0.2713   -1.2384 C   0  0  1  0  0  0  0  0  0  0  0  0
   -0.4850    1.0103   -0.5853 C   0  0  1  0  0  0  0  0  0  0  0  0
    0.4880    2.0958   -1.0418 C   0  0  0  0  0  0  0  0  0  0  0  0
    1.8434    1.3905   -0.7986 C   0  0  0  0  0  0  0  0  0  0  0  0
    1.5885   -0.1425   -0.8520 C   0  0  2  0  0  0  0  0  0  0  0  0
   -0.0973   -0.1796   -2.7543 C   0  0  0  0  0  0  0  0  0  0  0  0
   -4.4764    0.1658   -2.0497 C   0  0  0  0  0  0  0  0  0  0  0  0
    2.5923   -0.8274   -1.8035 C   0  0  2  0  0  0  0  0  0  0  0  0
    2.7437   -2.3099   -1.4638 C   0  0  0  0  0  0  0  0  0  0  0  0
    3.9961   -0.2348   -1.6721 C   0  0  0  0  0  0  0  0  0  0  0  0
    4.8571   -0.7654   -2.8115 C   0  0  0  0  0  0  0  0  0  0  0  0
    6.2969   -0.9376   -2.3331 C   0  0  0  0  0  0  0  0  0  0  0  0
    7.1633    0.1936   -2.8859 C   0  0  0  0  0  0  0  0  0  0  0  0
    8.5869    0.0356   -2.3609 C   0  0  0  0  0  0  0  0  0  0  0  0
    7.1921    0.1377   -4.4163 C   0  0  0  0  0  0  0  0  0  0  0  0
   -8.1900    1.0721    0.8564 O   0  0  0  0  0  0  0  0  0  0  0  0
  1 10  1  0  0  0  0
  1  2  1  0  0  0  0
  2  3  1  0  0  0  0
  3  4  1  0  0  0  0
  3 28  1  6  0  0  0
  4  5  1  0  0  0  0
  5  6  1  0  0  0  0
  5 10  1  1  0  0  0
  6  7  1  0  0  0  0
  7  8  1  6  0  0  0
  8 14  1  0  0  0  0
  8  9  1  0  0  0  0
  9 10  1  6  0  0  0
  9 11  1  0  0  0  0
 10 19  1  6  0  0  0
 11 12  1  0  0  0  0
 12 13  1  0  0  0  0
 13 18  1  1  0  0  0
 13 14  1  1  0  0  0
 14 15  1  0  0  0  0
 15 16  1  0  0  0  0
 16 17  1  0  0  0  0
 13 17  1  6  0  0  0
 17 20  1  0  0  0  0
 20 21  1  1  0  0  0
 20 22  1  0  0  0  0
 22 23  1  0  0  0  0
 23 24  1  0  0  0  0
 24 25  1  0  0  0  0
 25 26  1  0  0  0  0
 25 27  1  0  0  0  0
M  END
$$$$
CLR_6s7p_A_1309.pdb
  PyMOL2.2          3D                             0

 28 31  0  0  1  0  0  0  0  0999 V2000
   -4.9706   -0.7602    0.2584 C   0  0  0  0  0  0  0  0  0  0  0  0
   -6.4732   -0.4849    0.2539 C   0  0  0  0  0  0  0  0  0  0  0  0
   -6.7328    0.8882    0.8564 C   0  0  1  0  0  0  0  0  0  0  0  0
   -6.1573    1.9256   -0.1051 C   0  0  0  0  0  0  0  0  0  0  0  0
   -4.6683    1.6564   -0.2541 C   0  0  2  0  0  0  0  0  0  0  0  0
   -3.8846    2.6792   -0.3996 C   0  0  0  0  0  0  0  0  0  0  0  0
   -2.3893    2.5724   -0.3183 C   0  0  0  0  0  0  0  0  0  0  0  0
   -1.9067    1.2541   -0.9319 C   0  0  2  0  0  0  0  0  0  0  0  0
   -2.7226    0.0905   -0.3647 C   0  0  1  0  0  0  0  0  0  0  0  0
   -4.2183    0.2726   -0.5820 C   0  0  1  0  0  0  0  0  0  0  0  0
   -2.2202   -1.2217   -0.9551 C   0  0  0  0  0  0  0  0  0  0  0  0
   -0.7216   -1.4195   -0.7051 C   0  0  0  0  0  0  0  0  0  0  0  0
    0.1109   -0.2449   -1.2324 C   0  0  1  0  0  0  0  0  0  0  0  0
   -0.4578    1.0169   -0.5222 C   0  0  1  0  0  0  0  0  0  0  0  0
    0.5500    2.0999   -0.9251 C   0  0  0  0  0  0  0  0  0  0  0  0
    1.9046    1.3487   -0.8447 C   0  0  0  0  0  0  0  0  0  0  0  0
    1.6097   -0.1770   -0.8820 C   0  0  2  0  0  0  0  0  0  0  0  0
   -0.0947   -0.0531   -2.7329 C   0  0  0  0  0  0  0  0  0  0  0  0
   -4.5528    0.0330   -2.0552 C   0  0  0  0  0  0  0  0  0  0  0  0
    2.5848   -0.9045   -1.8461 C   0  0  2  0  0  0  0  0  0  0  0  0
    2.6335   -2.4128   -1.5753 C   0  0  0  0  0  0  0  0  0  0  0  0
    4.0119   -0.3621   -1.6739 C   0  0  0  0  0  0  0  0  0  0  0  0
    5.0941   -1.2071   -2.3510 C   0  0  0  0  0  0  0  0  0  0  0  0
    6.2073   -1.4857   -1.3357 C   0  0  0  0  0  0  0  0  0  0  0  0
    7.4802   -1.9098   -2.0654 C   0  0  0  0  0  0  0  0  0  0  0  0
    8.4684   -0.7404   -2.0790 C   0  0  0  0  0  0  0  0  0  0  0  0
    8.1008   -3.1206   -1.3650 C   0  0  0  0  0  0  0  0  0  0  0  0
   -8.1405    1.0803    0.9895 O   0  0  0  0  0  0  0  0  0  0  0  0
  1 10  1  0  0  0  0
  1  2  1  0  0  0  0
  2  3  1  0  0  0  0
  3  4  1  0  0  0  0
  3 28  1  6  0  0  0
  4  5  1  0  0  0  0
  5  6  1  0  0  0  0
  5 10  1  1  0  0  0
  6  7  1  0  0  0  0
  7  8  1  6  0  0  0
  8 14  1  0  0  0  0
  8  9  1  0  0  0  0
  9 10  1  6  0  0  0
  9 11  1  0  0  0  0
 10 19  1  6  0  0  0
 11 12  1  0  0  0  0
 12 13  1  0  0  0  0
 13 18  1  1  0  0  0
 13 14  1  1  0  0  0
 14 15  1  0  0  0  0
 15 16  1  0  0  0  0
 13 17  1  6  0  0  0
 16 17  1  0  0  0  0
 17 20  1  0  0  0  0
 20 21  1  1  0  0  0
 20 22  1  0  0  0  0
 22 23  1  0  0  0  0
 23 24  1  0  0  0  0
 24 25  1  0  0  0  0
 25 26  1  0  0  0  0
 25 27  1  0  0  0  0
M  END
$$$$
CLR_6uy0_A_1606.pdb
  PyMOL2.2          3D                             0

 28 31  0  0  1  0  0  0  0  0999 V2000
   -4.9341   -0.8325    0.2140 C   0  0  0  0  0  0  0  0  0  0  0  0
   -6.4426   -0.7993    0.0074 C   0  0  0  0  0  0  0  0  0  0  0  0
   -6.9637    0.5981    0.2210 C   0  0  1  0  0  0  0  0  0  0  0  0
   -6.3027    1.5515   -0.7588 C   0  0  0  0  0  0  0  0  0  0  0  0
   -4.7919    1.5127   -0.6738 C   0  0  0  0  0  0  0  0  0  0  0  0
   -4.0853    2.6337   -0.5866 C   0  0  0  0  0  0  0  0  0  0  0  0
   -2.6146    2.6997   -0.3253 C   0  0  0  0  0  0  0  0  0  0  0  0
   -1.9238    1.4150   -0.7604 C   0  0  2  0  0  0  0  0  0  0  0  0
   -2.6931    0.1833   -0.2288 C   0  0  1  0  0  0  0  0  0  0  0  0
   -4.1596    0.1203   -0.7320 C   0  0  1  0  0  0  0  0  0  0  0  0
   -1.9745   -1.1597   -0.4503 C   0  0  0  0  0  0  0  0  0  0  0  0
   -0.4933   -1.1109   -0.0967 C   0  0  0  0  0  0  0  0  0  0  0  0
    0.1910    0.0559   -0.8126 C   0  0  1  0  0  0  0  0  0  0  0  0
   -0.4786    1.3333   -0.2852 C   0  0  1  0  0  0  0  0  0  0  0  0
    0.5030    2.4590   -0.5950 C   0  0  0  0  0  0  0  0  0  0  0  0
    1.8952    1.7967   -0.4771 C   0  0  0  0  0  0  0  0  0  0  0  0
    1.6876    0.2560   -0.4595 C   0  0  2  0  0  0  0  0  0  0  0  0
    0.0409   -0.0553   -2.3493 C   0  0  0  0  0  0  0  0  0  0  0  0
   -4.2497   -0.3923   -2.1867 C   0  0  0  0  0  0  0  0  0  0  0  0
    2.6717   -0.5270   -1.3469 C   0  0  2  0  0  0  0  0  0  0  0  0
    2.3629   -2.0274   -1.3996 C   0  0  0  0  0  0  0  0  0  0  0  0
    4.1286   -0.2987   -0.9496 C   0  0  0  0  0  0  0  0  0  0  0  0
    5.0647   -1.1288   -1.7648 C   0  0  0  0  0  0  0  0  0  0  0  0
    6.4764   -1.0345   -1.3520 C   0  0  0  0  0  0  0  0  0  0  0  0
    7.3959   -2.0494   -2.0076 C   0  0  0  0  0  0  0  0  0  0  0  0
    8.8157   -1.8553   -1.5241 C   0  0  0  0  0  0  0  0  0  0  0  0
    6.9444   -3.4833   -1.7584 C   0  0  0  0  0  0  0  0  0  0  0  0
   -8.3878    0.6109    0.0603 O   0  0  0  0  0  0  0  0  0  0  0  0
  1  2  1  0  0  0  0
  1 10  1  0  0  0  0
  2  3  1  0  0  0  0
  3  4  1  0  0  0  0
  3 28  1  1  0  0  0
  4  5  1  0  0  0  0
  5 10  1  0  0  0  0
  5  6  2  0  0  0  0
  6  7  1  0  0  0  0
  7  8  1  6  0  0  0
  8  9  1  0  0  0  0
  9 10  1  1  0  0  0
  9 11  1  0  0  0  0
 10 19  1  1  0  0  0
 11 12  1  0  0  0  0
 12 13  1  0  0  0  0
 13 18  1  1  0  0  0
  8 14  1  0  0  0  0
 13 14  1  1  0  0  0
 14 15  1  0  0  0  0
 15 16  1  0  0  0  0
 16 17  1  0  0  0  0
 13 17  1  1  0  0  0
 17 20  1  0  0  0  0
 20 21  1  6  0  0  0
 20 22  1  0  0  0  0
 22 23  1  0  0  0  0
 23 24  1  0  0  0  0
 24 25  1  0  0  0  0
 25 27  1  0  0  0  0
 25 26  1  0  0  0  0
M  END
$$$$
CLR_6v22_A_1112.pdb
  PyMOL2.2          3D                             0

 28 31  0  0  1  0  0  0  0  0999 V2000
   -4.8940   -0.5341    0.6561 C   0  0  0  0  0  0  0  0  0  0  0  0
   -6.4060   -0.3001    0.9084 C   0  0  0  0  0  0  0  0  0  0  0  0
   -6.8255    1.1752    0.7659 C   0  0  1  0  0  0  0  0  0  0  0  0
   -6.3426    1.7610   -0.5782 C   0  0  0  0  0  0  0  0  0  0  0  0
   -4.8147    1.5809   -0.8122 C   0  0  1  0  0  0  0  0  0  0  0  0
   -4.0712    2.5824    0.1272 C   0  0  0  0  0  0  0  0  0  0  0  0
   -2.4648    2.4886    0.0507 C   0  0  0  0  0  0  0  0  0  0  0  0
   -1.8932    1.3536   -0.8637 C   0  0  2  0  0  0  0  0  0  0  0  0
   -2.7773   -0.0362   -0.5539 C   0  0  1  0  0  0  0  0  0  0  0  0
   -4.3420    0.1240   -0.6366 C   0  0  1  0  0  0  0  0  0  0  0  0
   -2.1956   -1.1702   -1.3671 C   0  0  0  0  0  0  0  0  0  0  0  0
   -0.6022   -1.3956   -0.9796 C   0  0  0  0  0  0  0  0  0  0  0  0
    0.2378   -0.1610   -1.1830 C   0  0  1  0  0  0  0  0  0  0  0  0
   -0.4543    1.1674   -0.5848 C   0  0  1  0  0  0  0  0  0  0  0  0
    0.6156    2.3405   -0.8990 C   0  0  0  0  0  0  0  0  0  0  0  0
    2.0100    1.6974   -0.5304 C   0  0  0  0  0  0  0  0  0  0  0  0
    1.7830   -0.0301   -0.6360 C   0  0  2  0  0  0  0  0  0  0  0  0
    0.2621    0.0595   -2.7308 C   0  0  0  0  0  0  0  0  0  0  0  0
   -4.9142   -0.6362   -1.8152 C   0  0  0  0  0  0  0  0  0  0  0  0
    2.7389   -0.6424   -1.4018 C   0  0  2  0  0  0  0  0  0  0  0  0
    2.9199   -2.1805   -0.9969 C   0  0  0  0  0  0  0  0  0  0  0  0
    4.1952    0.0291   -1.2009 C   0  0  0  0  0  0  0  0  0  0  0  0
    5.3028   -0.7346   -1.9935 C   0  0  0  0  0  0  0  0  0  0  0  0
    6.5007   -1.1493   -1.0959 C   0  0  0  0  0  0  0  0  0  0  0  0
    7.5040   -2.0765   -1.8800 C   0  0  0  0  0  0  0  0  0  0  0  0
    8.2062   -1.3104   -2.9583 C   0  0  0  0  0  0  0  0  0  0  0  0
    8.5293   -2.7935   -0.8958 C   0  0  0  0  0  0  0  0  0  0  0  0
   -8.2321    1.2560    0.8275 O   0  0  0  0  0  0  0  0  0  0  0  0
  1  2  1  0  0  0  0
  2  3  1  0  0  0  0
  3 28  1  1  0  0  0
  3  4  1  0  0  0  0
  4  5  1  0  0  0  0
  5 10  1  6  0  0  0
  5  6  1  0  0  0  0
  6  7  1  0  0  0  0
  7  8  1  1  0  0  0
  8  9  1  0  0  0  0
  9 10  1  1  0  0  0
  1 10  1  0  0  0  0
 10 19  1  1  0  0  0
  9 11  1  0  0  0  0
 11 12  1  0  0  0  0
 12 13  1  0  0  0  0
 13 18  1  6  0  0  0
  8 14  1  0  0  0  0
 13 14  1  6  0  0  0
 14 15  1  0  0  0  0
 15 16  1  0  0  0  0
 16 17  1  0  0  0  0
 13 17  1  1  0  0  0
 17 20  1  0  0  0  0
 20 21  1  6  0  0  0
 20 22  1  0  0  0  0
 22 23  1  0  0  0  0
 23 24  1  0  0  0  0
 24 25  1  0  0  0  0
 25 26  1  0  0  0  0
 25 27  1  0  0  0  0
M  END
$$$$
CLR_6wbg_B_405.pdb
  PyMOL2.2          3D                             0

 28 31  0  0  1  0  0  0  0  0999 V2000
   -4.9981   -0.7253    0.2902 C   0  0  0  0  0  0  0  0  0  0  0  0
   -6.5072   -0.4823    0.3646 C   0  0  0  0  0  0  0  0  0  0  0  0
   -6.8143    0.9072    0.8663 C   0  0  1  0  0  0  0  0  0  0  0  0
   -6.1570    1.9338   -0.0349 C   0  0  0  0  0  0  0  0  0  0  0  0
   -4.6662    1.7012   -0.1661 C   0  0  0  0  0  0  0  0  0  0  0  0
   -3.8014    2.6733    0.0889 C   0  0  0  0  0  0  0  0  0  0  0  0
   -2.3237    2.5842   -0.1191 C   0  0  0  0  0  0  0  0  0  0  0  0
   -1.9067    1.3305   -0.8821 C   0  0  2  0  0  0  0  0  0  0  0  0
   -2.7132    0.1243   -0.3659 C   0  0  1  0  0  0  0  0  0  0  0  0
   -4.2407    0.2972   -0.5887 C   0  0  1  0  0  0  0  0  0  0  0  0
   -2.1830   -1.2008   -0.9375 C   0  0  0  0  0  0  0  0  0  0  0  0
   -0.6780   -1.3870   -0.7161 C   0  0  0  0  0  0  0  0  0  0  0  0
    0.1145   -0.2333   -1.3339 C   0  0  1  0  0  0  0  0  0  0  0  0
   -0.4180    1.0674   -0.6963 C   0  0  1  0  0  0  0  0  0  0  0  0
    0.5868    2.1350   -1.1225 C   0  0  0  0  0  0  0  0  0  0  0  0
    1.9222    1.3741   -1.2442 C   0  0  0  0  0  0  0  0  0  0  0  0
    1.6054   -0.1072   -0.9116 C   0  0  2  0  0  0  0  0  0  0  0  0
   -0.0283   -0.2282   -2.8649 C   0  0  0  0  0  0  0  0  0  0  0  0
   -4.6314    0.1099   -2.0654 C   0  0  0  0  0  0  0  0  0  0  0  0
    2.6636   -1.0922   -1.4413 C   0  0  2  0  0  0  0  0  0  0  0  0
    3.6225   -1.5565   -0.3484 C   0  0  0  0  0  0  0  0  0  0  0  0
    3.4370   -0.4786   -2.6202 C   0  0  0  0  0  0  0  0  0  0  0  0
    3.8027   -1.4248   -3.7464 C   0  0  0  0  0  0  0  0  0  0  0  0
    4.8361   -2.4534   -3.3693 C   0  0  0  0  0  0  0  0  0  0  0  0
    5.1843   -3.4688   -4.4540 C   0  0  0  0  0  0  0  0  0  0  0  0
    3.9457   -4.2107   -4.9284 C   0  0  0  0  0  0  0  0  0  0  0  0
    6.2384   -4.4533   -3.9696 C   0  0  0  0  0  0  0  0  0  0  0  0
   -8.2319    1.1147    0.8980 O   0  0  0  0  0  0  0  0  0  0  0  0
  1  2  1  0  0  0  0
  2  3  1  0  0  0  0
  3 28  1  1  0  0  0
  3  4  1  0  0  0  0
  4  5  1  0  0  0  0
  5  6  2  0  0  0  0
  6  7  1  0  0  0  0
  7  8  1  1  0  0  0
  8  9  1  0  0  0  0
  9 10  1  6  0  0  0
  1 10  1  0  0  0  0
  5 10  1  0  0  0  0
 10 19  1  6  0  0  0
  9 11  1  0  0  0  0
 11 12  1  0  0  0  0
 12 13  1  0  0  0  0
 13 18  1  6  0  0  0
  8 14  1  0  0  0  0
 13 14  1  6  0  0  0
 14 15  1  0  0  0  0
 15 16  1  0  0  0  0
 16 17  1  0  0  0  0
 13 17  1  6  0  0  0
 17 20  1  0  0  0  0
 20 21  1  1  0  0  0
 20 22  1  0  0  0  0
 22 23  1  0  0  0  0
 23 24  1  0  0  0  0
 24 25  1  0  0  0  0
 25 26  1  0  0  0  0
 25 27  1  0  0  0  0
M  END
$$$$
CLR_6wbn_G_404.pdb
  PyMOL2.2          3D                             0

 28 31  0  0  1  0  0  0  0  0999 V2000
   -4.9929   -0.7248    0.2937 C   0  0  0  0  0  0  0  0  0  0  0  0
   -6.5016   -0.4852    0.3622 C   0  0  0  0  0  0  0  0  0  0  0  0
   -6.8158    0.9028    0.8621 C   0  0  1  0  0  0  0  0  0  0  0  0
   -6.1542    1.9320   -0.0354 C   0  0  0  0  0  0  0  0  0  0  0  0
   -4.6637    1.7001   -0.1574 C   0  0  0  0  0  0  0  0  0  0  0  0
   -3.8005    2.6695    0.1068 C   0  0  0  0  0  0  0  0  0  0  0  0
   -2.3199    2.5819   -0.0983 C   0  0  0  0  0  0  0  0  0  0  0  0
   -1.9071    1.3369   -0.8748 C   0  0  2  0  0  0  0  0  0  0  0  0
   -2.7091    0.1255   -0.3658 C   0  0  1  0  0  0  0  0  0  0  0  0
   -4.2392    0.2992   -0.5841 C   0  0  1  0  0  0  0  0  0  0  0  0
   -2.1833   -1.1951   -0.9495 C   0  0  0  0  0  0  0  0  0  0  0  0
   -0.6817   -1.3832   -0.7232 C   0  0  0  0  0  0  0  0  0  0  0  0
    0.1114   -0.2276   -1.3373 C   0  0  1  0  0  0  0  0  0  0  0  0
   -0.4173    1.0734   -0.7012 C   0  0  1  0  0  0  0  0  0  0  0  0
    0.5891    2.1378   -1.1388 C   0  0  0  0  0  0  0  0  0  0  0  0
    1.9182    1.3666   -1.2945 C   0  0  0  0  0  0  0  0  0  0  0  0
    1.5985   -0.0999   -0.9073 C   0  0  2  0  0  0  0  0  0  0  0  0
   -0.0216   -0.2200   -2.8683 C   0  0  0  0  0  0  0  0  0  0  0  0
   -4.6331    0.1119   -2.0607 C   0  0  0  0  0  0  0  0  0  0  0  0
    2.6506   -1.1132   -1.3914 C   0  0  2  0  0  0  0  0  0  0  0  0
    3.5415   -1.5935   -0.2509 C   0  0  0  0  0  0  0  0  0  0  0  0
    3.4919   -0.5265   -2.5370 C   0  0  0  0  0  0  0  0  0  0  0  0
    3.9849   -1.5154   -3.5753 C   0  0  0  0  0  0  0  0  0  0  0  0
    5.0613   -2.4477   -3.0760 C   0  0  0  0  0  0  0  0  0  0  0  0
    5.4822   -3.5499   -4.0448 C   0  0  0  0  0  0  0  0  0  0  0  0
    4.2947   -4.4095   -4.4501 C   0  0  0  0  0  0  0  0  0  0  0  0
    6.5855   -4.4132   -3.4521 C   0  0  0  0  0  0  0  0  0  0  0  0
   -8.2337    1.1079    0.8813 O   0  0  0  0  0  0  0  0  0  0  0  0
  1  2  1  0  0  0  0
  2  3  1  0  0  0  0
  3 28  1  1  0  0  0
  3  4  1  0  0  0  0
  4  5  1  0  0  0  0
  5  6  2  0  0  0  0
  6  7  1  0  0  0  0
  7  8  1  1  0  0  0
  8  9  1  0  0  0  0
  9 10  1  6  0  0  0
  1 10  1  0  0  0  0
  5 10  1  0  0  0  0
 10 19  1  6  0  0  0
  9 11  1  0  0  0  0
 11 12  1  0  0  0  0
 12 13  1  0  0  0  0
 13 18  1  6  0  0  0
  8 14  1  0  0  0  0
 13 14  1  6  0  0  0
 14 15  1  0  0  0  0
 15 16  1  0  0  0  0
 16 17  1  0  0  0  0
 13 17  1  6  0  0  0
 17 20  1  0  0  0  0
 20 21  1  1  0  0  0
 20 22  1  0  0  0  0
 22 23  1  0  0  0  0
 23 24  1  0  0  0  0
 24 25  1  0  0  0  0
 25 26  1  0  0  0  0
 25 27  1  0  0  0  0
M  END
$$$$
CLR_6wbn_G_405.pdb
  PyMOL2.2          3D                             0

 28 31  0  0  1  0  0  0  0  0999 V2000
   -5.0367   -0.7389    0.2461 C   0  0  0  0  0  0  0  0  0  0  0  0
   -6.5478   -0.5029    0.2208 C   0  0  0  0  0  0  0  0  0  0  0  0
   -6.8910    0.8952    0.6720 C   0  0  1  0  0  0  0  0  0  0  0  0
   -6.1832    1.9058   -0.2104 C   0  0  0  0  0  0  0  0  0  0  0  0
   -4.6874    1.6774   -0.2565 C   0  0  0  0  0  0  0  0  0  0  0  0
   -3.8402    2.6615    0.0080 C   0  0  0  0  0  0  0  0  0  0  0  0
   -2.3531    2.5739   -0.1298 C   0  0  0  0  0  0  0  0  0  0  0  0
   -1.9072    1.2999   -0.8391 C   0  0  2  0  0  0  0  0  0  0  0  0
   -2.7209    0.1044   -0.3114 C   0  0  1  0  0  0  0  0  0  0  0  0
   -4.2366    0.2652   -0.6139 C   0  0  1  0  0  0  0  0  0  0  0  0
   -2.1661   -1.2360   -0.8230 C   0  0  0  0  0  0  0  0  0  0  0  0
   -0.6545   -1.3863   -0.6226 C   0  0  0  0  0  0  0  0  0  0  0  0
    0.1097   -0.2356   -1.2829 C   0  0  1  0  0  0  0  0  0  0  0  0
   -0.4203    1.0502   -0.6254 C   0  0  1  0  0  0  0  0  0  0  0  0
    0.5753    2.1231   -1.0542 C   0  0  0  0  0  0  0  0  0  0  0  0
    1.9305    1.3941   -1.0302 C   0  0  0  0  0  0  0  0  0  0  0  0
    1.6300   -0.1273   -0.9607 C   0  0  2  0  0  0  0  0  0  0  0  0
   -0.1092   -0.2308   -2.8043 C   0  0  0  0  0  0  0  0  0  0  0  0
   -4.5483    0.0365   -2.1051 C   0  0  0  0  0  0  0  0  0  0  0  0
    2.6463   -0.9578   -1.7654 C   0  0  2  0  0  0  0  0  0  0  0  0
    2.4413   -2.4636   -1.6238 C   0  0  0  0  0  0  0  0  0  0  0  0
    4.0826   -0.5520   -1.3975 C   0  0  0  0  0  0  0  0  0  0  0  0
    5.1523   -0.9340   -2.3961 C   0  0  0  0  0  0  0  0  0  0  0  0
    5.7335   -2.3086   -2.1719 C   0  0  0  0  0  0  0  0  0  0  0  0
    6.6398   -2.8300   -3.2833 C   0  0  0  0  0  0  0  0  0  0  0  0
    5.8801   -2.9657   -4.5930 C   0  0  0  0  0  0  0  0  0  0  0  0
    7.2753   -4.1570   -2.9017 C   0  0  0  0  0  0  0  0  0  0  0  0
   -8.3082    1.0971    0.6081 O   0  0  0  0  0  0  0  0  0  0  0  0
  1  2  1  0  0  0  0
  2  3  1  0  0  0  0
  3 28  1  1  0  0  0
  3  4  1  0  0  0  0
  4  5  1  0  0  0  0
  5  6  2  0  0  0  0
  6  7  1  0  0  0  0
  7  8  1  1  0  0  0
  8  9  1  0  0  0  0
  9 10  1  1  0  0  0
  1 10  1  0  0  0  0
  5 10  1  0  0  0  0
 10 19  1  6  0  0  0
  9 11  1  0  0  0  0
 11 12  1  0  0  0  0
 12 13  1  0  0  0  0
 13 18  1  6  0  0  0
  8 14  1  0  0  0  0
 13 14  1  6  0  0  0
 14 15  1  0  0  0  0
 15 16  1  0  0  0  0
 13 17  1  1  0  0  0
 16 17  1  0  0  0  0
 17 20  1  0  0  0  0
 20 21  1  6  0  0  0
 20 22  1  0  0  0  0
 22 23  1  0  0  0  0
 23 24  1  0  0  0  0
 24 25  1  0  0  0  0
 25 26  1  0  0  0  0
 25 27  1  0  0  0  0
M  END
$$$$
CLR_6wiv_A_908.pdb
  PyMOL2.2          3D                             0

 28 31  0  0  1  0  0  0  0  0999 V2000
   -5.0403   -0.7293    0.1934 C   0  0  0  0  0  0  0  0  0  0  0  0
   -6.5314   -0.4479    0.1261 C   0  0  0  0  0  0  0  0  0  0  0  0
   -6.7920    0.9097    0.7122 C   0  0  1  0  0  0  0  0  0  0  0  0
   -6.1181    1.9312   -0.1917 C   0  0  0  0  0  0  0  0  0  0  0  0
   -4.6486    1.6571   -0.2560 C   0  0  0  0  0  0  0  0  0  0  0  0
   -3.8142    2.6659   -0.0778 C   0  0  0  0  0  0  0  0  0  0  0  0
   -2.3492    2.4922    0.0245 C   0  0  0  0  0  0  0  0  0  0  0  0
   -1.9250    1.2811   -0.7839 C   0  0  2  0  0  0  0  0  0  0  0  0
   -2.7088    0.0718   -0.2962 C   0  0  1  0  0  0  0  0  0  0  0  0
   -4.2309    0.2648   -0.6300 C   0  0  1  0  0  0  0  0  0  0  0  0
   -2.1418   -1.2753   -0.8077 C   0  0  0  0  0  0  0  0  0  0  0  0
   -0.6352   -1.4128   -0.6299 C   0  0  0  0  0  0  0  0  0  0  0  0
    0.0850   -0.2494   -1.2853 C   0  0  1  0  0  0  0  0  0  0  0  0
   -0.4364    1.0338   -0.5782 C   0  0  1  0  0  0  0  0  0  0  0  0
    0.5070    2.1089   -1.0903 C   0  0  0  0  0  0  0  0  0  0  0  0
    1.8574    1.3996   -1.1099 C   0  0  0  0  0  0  0  0  0  0  0  0
    1.5989   -0.1088   -0.9713 C   0  0  2  0  0  0  0  0  0  0  0  0
   -0.1638   -0.2049   -2.8265 C   0  0  0  0  0  0  0  0  0  0  0  0
   -4.5343    0.0549   -2.1290 C   0  0  0  0  0  0  0  0  0  0  0  0
    2.5719   -0.8842   -1.8732 C   0  0  2  0  0  0  0  0  0  0  0  0
    2.2453   -2.3649   -1.9014 C   0  0  0  0  0  0  0  0  0  0  0  0
    4.0171   -0.6924   -1.3802 C   0  0  0  0  0  0  0  0  0  0  0  0
    4.8478    0.0705   -2.4230 C   0  0  0  0  0  0  0  0  0  0  0  0
    6.3320    0.0611   -2.0317 C   0  0  0  0  0  0  0  0  0  0  0  0
    7.2451    0.0552   -3.2765 C   0  0  0  0  0  0  0  0  0  0  0  0
    8.6762    0.4092   -2.8585 C   0  0  0  0  0  0  0  0  0  0  0  0
    7.2300   -1.3163   -3.9630 C   0  0  0  0  0  0  0  0  0  0  0  0
   -8.1736    1.0897    0.7288 O   0  0  0  0  0  0  0  0  0  0  0  0
  1 10  1  0  0  0  0
  1  2  1  0  0  0  0
  2  3  1  0  0  0  0
  3  4  1  0  0  0  0
  3 28  1  6  0  0  0
  4  5  1  0  0  0  0
  5  6  2  0  0  0  0
  6  7  1  0  0  0  0
  7  8  1  6  0  0  0
  8 14  1  0  0  0  0
  8  9  1  0  0  0  0
  9 10  1  6  0  0  0
  9 11  1  0  0  0  0
  5 10  1  0  0  0  0
 10 19  1  6  0  0  0
 11 12  1  0  0  0  0
 12 13  1  0  0  0  0
 13 18  1  1  0  0  0
 13 14  1  1  0  0  0
 14 15  1  0  0  0  0
 15 16  1  0  0  0  0
 13 17  1  6  0  0  0
 16 17  1  0  0  0  0
 17 20  1  0  0  0  0
 20 21  1  6  0  0  0
 20 22  1  0  0  0  0
 22 23  1  0  0  0  0
 23 24  1  0  0  0  0
 24 25  1  0  0  0  0
 25 26  1  0  0  0  0
 25 27  1  0  0  0  0
M  END
$$$$
CLR_6zdr_A_1203.pdb
  PyMOL2.2          3D                             0

 28 31  0  0  1  0  0  0  0  0999 V2000
   -5.0077   -0.7956    0.2067 C   0  0  0  0  0  0  0  0  0  0  0  0
   -6.5092   -0.5416    0.1440 C   0  0  0  0  0  0  0  0  0  0  0  0
   -6.8838    0.8357    0.6919 C   0  0  1  0  0  0  0  0  0  0  0  0
   -6.2088    1.9290   -0.1327 C   0  0  0  0  0  0  0  0  0  0  0  0
   -4.7269    1.6614   -0.2506 C   0  0  0  0  0  0  0  0  0  0  0  0
   -3.8952    2.7110   -0.0864 C   0  0  0  0  0  0  0  0  0  0  0  0
   -2.3902    2.5674   -0.1087 C   0  0  0  0  0  0  0  0  0  0  0  0
   -1.9306    1.2926   -0.8244 C   0  0  2  0  0  0  0  0  0  0  0  0
   -2.7317    0.0763   -0.2810 C   0  0  1  0  0  0  0  0  0  0  0  0
   -4.2294    0.2511   -0.6053 C   0  0  1  0  0  0  0  0  0  0  0  0
   -2.1994   -1.3108   -0.7550 C   0  0  0  0  0  0  0  0  0  0  0  0
   -0.6573   -1.3913   -0.6174 C   0  0  0  0  0  0  0  0  0  0  0  0
    0.0937   -0.2071   -1.2732 C   0  0  1  0  0  0  0  0  0  0  0  0
   -0.4181    1.0969   -0.6250 C   0  0  1  0  0  0  0  0  0  0  0  0
    0.5289    2.1893   -1.0904 C   0  0  0  0  0  0  0  0  0  0  0  0
    1.8675    1.4533   -1.0784 C   0  0  0  0  0  0  0  0  0  0  0  0
    1.5887   -0.0600   -0.9291 C   0  0  2  0  0  0  0  0  0  0  0  0
   -0.1313   -0.2210   -2.8059 C   0  0  0  0  0  0  0  0  0  0  0  0
   -4.5166    0.1037   -2.1125 C   0  0  0  0  0  0  0  0  0  0  0  0
    2.6383   -0.9291   -1.6572 C   0  0  2  0  0  0  0  0  0  0  0  0
    2.3203   -2.4254   -1.6246 C   0  0  0  0  0  0  0  0  0  0  0  0
    4.0046   -0.7148   -1.0036 C   0  0  0  0  0  0  0  0  0  0  0  0
    5.1789   -1.4115   -1.6934 C   0  0  0  0  0  0  0  0  0  0  0  0
    6.4845   -0.9865   -1.0163 C   0  0  0  0  0  0  0  0  0  0  0  0
    7.7255   -1.7979   -1.4086 C   0  0  0  0  0  0  0  0  0  0  0  0
    7.7264   -3.1729   -0.7569 C   0  0  0  0  0  0  0  0  0  0  0  0
    7.9081   -1.9341   -2.9153 C   0  0  0  0  0  0  0  0  0  0  0  0
   -8.2995    0.9713    0.5406 O   0  0  0  0  0  0  0  0  0  0  0  0
  1  2  1  0  0  0  0
  2  3  1  0  0  0  0
  3 28  1  1  0  0  0
  3  4  1  0  0  0  0
  4  5  1  0  0  0  0
  5  6  2  0  0  0  0
  6  7  1  0  0  0  0
  7  8  1  1  0  0  0
  8  9  1  0  0  0  0
  9 10  1  1  0  0  0
  1 10  1  0  0  0  0
  5 10  1  0  0  0  0
 10 19  1  1  0  0  0
  9 11  1  0  0  0  0
 11 12  1  0  0  0  0
 12 13  1  0  0  0  0
 13 18  1  1  0  0  0
  8 14  1  0  0  0  0
 13 14  1  6  0  0  0
 14 15  1  0  0  0  0
 15 16  1  0  0  0  0
 16 17  1  0  0  0  0
 13 17  1  1  0  0  0
 17 20  1  0  0  0  0
 20 21  1  1  0  0  0
 20 22  1  0  0  0  0
 22 23  1  0  0  0  0
 23 24  1  0  0  0  0
 24 25  1  0  0  0  0
 25 26  1  0  0  0  0
 25 27  1  0  0  0  0
M  END
$$$$
CLR_6zdr_A_1205.pdb
  PyMOL2.2          3D                             0

 28 31  0  0  1  0  0  0  0  0999 V2000
   -4.9774   -0.7835    0.2525 C   0  0  0  0  0  0  0  0  0  0  0  0
   -6.4760   -0.5037    0.3843 C   0  0  0  0  0  0  0  0  0  0  0  0
   -6.7493    0.8962    0.9398 C   0  0  1  0  0  0  0  0  0  0  0  0
   -6.1295    1.9763    0.0633 C   0  0  0  0  0  0  0  0  0  0  0  0
   -4.6824    1.6638   -0.2036 C   0  0  0  0  0  0  0  0  0  0  0  0
   -3.8398    2.7059   -0.0871 C   0  0  0  0  0  0  0  0  0  0  0  0
   -2.3464    2.5878   -0.2715 C   0  0  0  0  0  0  0  0  0  0  0  0
   -1.9198    1.2812   -0.9632 C   0  0  2  0  0  0  0  0  0  0  0  0
   -2.7405    0.0615   -0.4574 C   0  0  1  0  0  0  0  0  0  0  0  0
   -4.2600    0.2547   -0.6355 C   0  0  1  0  0  0  0  0  0  0  0  0
   -2.2389   -1.3008   -1.0371 C   0  0  0  0  0  0  0  0  0  0  0  0
   -0.7162   -1.4266   -0.7620 C   0  0  0  0  0  0  0  0  0  0  0  0
    0.1090   -0.2262   -1.3126 C   0  0  1  0  0  0  0  0  0  0  0  0
   -0.4270    1.0614   -0.6556 C   0  0  1  0  0  0  0  0  0  0  0  0
    0.5608    2.1789   -1.0099 C   0  0  0  0  0  0  0  0  0  0  0  0
    1.8865    1.4199   -0.9825 C   0  0  0  0  0  0  0  0  0  0  0  0
    1.5932   -0.1055   -0.8928 C   0  0  2  0  0  0  0  0  0  0  0  0
   -0.0056   -0.1551   -2.8478 C   0  0  0  0  0  0  0  0  0  0  0  0
   -4.7205    0.0471   -2.0927 C   0  0  0  0  0  0  0  0  0  0  0  0
    2.6810   -0.9369   -1.6036 C   0  0  2  0  0  0  0  0  0  0  0  0
    2.4561   -2.4555   -1.5852 C   0  0  0  0  0  0  0  0  0  0  0  0
    4.0358   -0.6100   -0.9508 C   0  0  0  0  0  0  0  0  0  0  0  0
    5.2651   -1.1739   -1.6639 C   0  0  0  0  0  0  0  0  0  0  0  0
    6.4701   -0.7799   -0.8165 C   0  0  0  0  0  0  0  0  0  0  0  0
    7.8235   -1.2918   -1.3107 C   0  0  0  0  0  0  0  0  0  0  0  0
    7.8684   -2.7829   -1.6517 C   0  0  0  0  0  0  0  0  0  0  0  0
    8.4146   -0.3895   -2.3853 C   0  0  0  0  0  0  0  0  0  0  0  0
   -8.1609    1.1200    0.9630 O   0  0  0  0  0  0  0  0  0  0  0  0
  1  2  1  0  0  0  0
  2  3  1  0  0  0  0
  3 28  1  1  0  0  0
  3  4  1  0  0  0  0
  4  5  1  0  0  0  0
  5  6  2  0  0  0  0
  6  7  1  0  0  0  0
  7  8  1  1  0  0  0
  8  9  1  0  0  0  0
  9 10  1  1  0  0  0
  1 10  1  0  0  0  0
  5 10  1  0  0  0  0
 10 19  1  6  0  0  0
  9 11  1  0  0  0  0
 11 12  1  0  0  0  0
 12 13  1  0  0  0  0
 13 18  1  6  0  0  0
  8 14  1  0  0  0  0
 13 14  1  6  0  0  0
 14 15  1  0  0  0  0
 15 16  1  0  0  0  0
 16 17  1  0  0  0  0
 13 17  1  1  0  0  0
 17 20  1  0  0  0  0
 20 21  1  1  0  0  0
 20 22  1  0  0  0  0
 22 23  1  0  0  0  0
 23 24  1  0  0  0  0
 24 25  1  0  0  0  0
 25 26  1  0  0  0  0
 25 27  1  0  0  0  0
M  END
$$$$
CLR_6zdv_A_1204.pdb
  PyMOL2.2          3D                             0

 28 31  0  0  1  0  0  0  0  0999 V2000
   -4.9622   -0.7747    0.2499 C   0  0  0  0  0  0  0  0  0  0  0  0
   -6.4659   -0.5424    0.3355 C   0  0  0  0  0  0  0  0  0  0  0  0
   -6.7850    0.8579    0.8641 C   0  0  1  0  0  0  0  0  0  0  0  0
   -6.1997    1.9325   -0.0505 C   0  0  0  0  0  0  0  0  0  0  0  0
   -4.7283    1.6659   -0.2736 C   0  0  0  0  0  0  0  0  0  0  0  0
   -3.8929    2.7190   -0.1867 C   0  0  0  0  0  0  0  0  0  0  0  0
   -2.3845    2.6154   -0.3051 C   0  0  0  0  0  0  0  0  0  0  0  0
   -1.9112    1.3055   -0.9429 C   0  0  2  0  0  0  0  0  0  0  0  0
   -2.7354    0.0911   -0.4413 C   0  0  1  0  0  0  0  0  0  0  0  0
   -4.2575    0.2607   -0.6477 C   0  0  1  0  0  0  0  0  0  0  0  0
   -2.2245   -1.2738   -0.9981 C   0  0  0  0  0  0  0  0  0  0  0  0
   -0.7106   -1.3990   -0.7110 C   0  0  0  0  0  0  0  0  0  0  0  0
    0.1205   -0.2170   -1.2644 C   0  0  1  0  0  0  0  0  0  0  0  0
   -0.4139    1.0837   -0.6236 C   0  0  1  0  0  0  0  0  0  0  0  0
    0.5985    2.1695   -0.9881 C   0  0  0  0  0  0  0  0  0  0  0  0
    1.9127    1.3893   -0.9034 C   0  0  0  0  0  0  0  0  0  0  0  0
    1.5895   -0.1251   -0.8081 C   0  0  2  0  0  0  0  0  0  0  0  0
    0.0316   -0.1789   -2.7995 C   0  0  0  0  0  0  0  0  0  0  0  0
   -4.6794    0.0394   -2.1098 C   0  0  0  0  0  0  0  0  0  0  0  0
    2.6651   -1.0029   -1.4703 C   0  0  2  0  0  0  0  0  0  0  0  0
    2.3956   -2.5091   -1.4514 C   0  0  0  0  0  0  0  0  0  0  0  0
    4.0137   -0.7488   -0.7929 C   0  0  0  0  0  0  0  0  0  0  0  0
    5.2025   -1.3199   -1.5637 C   0  0  0  0  0  0  0  0  0  0  0  0
    6.4934   -0.8003   -0.9473 C   0  0  0  0  0  0  0  0  0  0  0  0
    7.7089   -1.4358   -1.6179 C   0  0  0  0  0  0  0  0  0  0  0  0
    8.9833   -0.6845   -1.2542 C   0  0  0  0  0  0  0  0  0  0  0  0
    7.8294   -2.9282   -1.2968 C   0  0  0  0  0  0  0  0  0  0  0  0
   -8.2024    0.9934    0.8918 O   0  0  0  0  0  0  0  0  0  0  0  0
  1  2  1  0  0  0  0
  2  3  1  0  0  0  0
  3 28  1  1  0  0  0
  3  4  1  0  0  0  0
  4  5  1  0  0  0  0
  5  6  2  0  0  0  0
  6  7  1  0  0  0  0
  7  8  1  1  0  0  0
  8  9  1  0  0  0  0
  9 10  1  1  0  0  0
  1 10  1  0  0  0  0
  5 10  1  0  0  0  0
 10 19  1  6  0  0  0
  9 11  1  0  0  0  0
 11 12  1  0  0  0  0
 12 13  1  0  0  0  0
 13 18  1  6  0  0  0
  8 14  1  0  0  0  0
 13 14  1  6  0  0  0
 14 15  1  0  0  0  0
 15 16  1  0  0  0  0
 16 17  1  0  0  0  0
 13 17  1  1  0  0  0
 17 20  1  0  0  0  0
 20 21  1  1  0  0  0
 20 22  1  0  0  0  0
 22 23  1  0  0  0  0
 23 24  1  0  0  0  0
 24 25  1  0  0  0  0
 25 26  1  0  0  0  0
 25 27  1  0  0  0  0
M  END
$$$$
CLR_7cfm_R_402.pdb
  PyMOL2.2          3D                             0

 28 31  0  0  1  0  0  0  0  0999 V2000
   -4.9527   -0.7209    0.2588 C   0  0  0  0  0  0  0  0  0  0  0  0
   -6.4264   -0.4100    0.4729 C   0  0  0  0  0  0  0  0  0  0  0  0
   -6.5647    0.9777    1.0720 C   0  0  1  0  0  0  0  0  0  0  0  0
   -6.1106    1.9976    0.0397 C   0  0  0  0  0  0  0  0  0  0  0  0
   -4.7257    1.6723   -0.4793 C   0  0  2  0  0  0  0  0  0  0  0  0
   -3.9191    2.6993   -0.7826 C   0  0  0  0  0  0  0  0  0  0  0  0
   -2.4233    2.6008   -0.6315 C   0  0  0  0  0  0  0  0  0  0  0  0
   -1.9425    1.2348   -1.0939 C   0  0  2  0  0  0  0  0  0  0  0  0
   -2.7966    0.0926   -0.5210 C   0  0  1  0  0  0  0  0  0  0  0  0
   -4.2825    0.2416   -0.7160 C   0  0  1  0  0  0  0  0  0  0  0  0
   -2.2531   -1.2506   -1.0987 C   0  0  0  0  0  0  0  0  0  0  0  0
   -0.7395   -1.4353   -0.9196 C   0  0  0  0  0  0  0  0  0  0  0  0
    0.1033   -0.2336   -1.3502 C   0  0  1  0  0  0  0  0  0  0  0  0
   -0.5028    0.9713   -0.6546 C   0  0  1  0  0  0  0  0  0  0  0  0
    0.5165    2.0861   -0.7957 C   0  0  0  0  0  0  0  0  0  0  0  0
    1.8344    1.3361   -0.6225 C   0  0  0  0  0  0  0  0  0  0  0  0
    1.5449   -0.1658   -0.7927 C   0  0  2  0  0  0  0  0  0  0  0  0
    0.0188   -0.0101   -2.8719 C   0  0  0  0  0  0  0  0  0  0  0  0
   -4.7031   -0.1079   -2.1412 C   0  0  0  0  0  0  0  0  0  0  0  0
    2.7884   -0.9051   -1.3918 C   0  0  2  0  0  0  0  0  0  0  0  0
    3.6344   -0.0710   -2.3690 C   0  0  0  0  0  0  0  0  0  0  0  0
    2.6216   -2.3280   -1.9454 C   0  0  0  0  0  0  0  0  0  0  0  0
    2.9840   -3.4018   -0.9285 C   0  0  0  0  0  0  0  0  0  0  0  0
    1.7470   -4.0852   -0.3551 C   0  0  0  0  0  0  0  0  0  0  0  0
    1.3143   -5.2964   -1.1740 C   0  0  0  0  0  0  0  0  0  0  0  0
    1.0494   -6.4856   -0.2579 C   0  0  0  0  0  0  0  0  0  0  0  0
    0.0876   -4.9977   -2.0277 C   0  0  0  0  0  0  0  0  0  0  0  0
   -7.9322    1.2195    1.4173 O   0  0  0  0  0  0  0  0  0  0  0  0
  1 10  1  0  0  0  0
  1  2  1  0  0  0  0
  2  3  1  0  0  0  0
  3  4  1  0  0  0  0
  3 28  1  6  0  0  0
  4  5  1  0  0  0  0
  5  6  1  0  0  0  0
  5 10  1  1  0  0  0
  6  7  1  0  0  0  0
  7  8  1  6  0  0  0
  8 14  1  0  0  0  0
  8  9  1  0  0  0  0
  9 10  1  6  0  0  0
  9 11  1  0  0  0  0
 10 19  1  1  0  0  0
 11 12  1  0  0  0  0
 12 13  1  0  0  0  0
 13 18  1  1  0  0  0
 13 14  1  1  0  0  0
 14 15  1  0  0  0  0
 15 16  1  0  0  0  0
 16 17  1  0  0  0  0
 13 17  1  1  0  0  0
 17 20  1  0  0  0  0
 20 21  1  1  0  0  0
 20 22  1  0  0  0  0
 22 23  1  0  0  0  0
 23 24  1  0  0  0  0
 24 25  1  0  0  0  0
 25 26  1  0  0  0  0
 25 27  1  0  0  0  0
M  END
$$$$
CLR_2rh1_C_413
  PyMOL2.2          3D                             0

 28 31  0  0  1  0  0  0  0  0999 V2000
   -5.0664   -0.7579    0.2054 C   0  0  0  0  0  0  0  0  0  0  0  0
   -6.5893   -0.5399    0.2661 C   0  0  0  0  0  0  0  0  0  0  0  0
   -6.8905    0.8654    0.7812 C   0  0  3  0  0  0  0  0  0  0  0  0
   -6.2129    1.9333   -0.0856 C   0  0  0  0  0  0  0  0  0  0  0  0
   -4.7169    1.6991   -0.2349 C   0  0  0  0  0  0  0  0  0  0  0  0
   -3.8589    2.7149   -0.0471 C   0  0  0  0  0  0  0  0  0  0  0  0
   -2.3589    2.5842   -0.1679 C   0  0  0  0  0  0  0  0  0  0  0  0
   -1.9009    1.2990   -0.8807 C   0  0  3  0  0  0  0  0  0  0  0  0
   -2.7330    0.0926   -0.3765 C   0  0  3  0  0  0  0  0  0  0  0  0
   -4.2747    0.2832   -0.6407 C   0  0  3  0  0  0  0  0  0  0  0  0
   -2.1585   -1.2674   -0.8630 C   0  0  0  0  0  0  0  0  0  0  0  0
   -0.6348   -1.4052   -0.6700 C   0  0  0  0  0  0  0  0  0  0  0  0
    0.1465   -0.2352   -1.3097 C   0  0  3  0  0  0  0  0  0  0  0  0
   -0.4011    1.0381   -0.6363 C   0  0  3  0  0  0  0  0  0  0  0  0
    0.5807    2.1340   -1.0484 C   0  0  0  0  0  0  0  0  0  0  0  0
    1.9277    1.4011   -1.0838 C   0  0  0  0  0  0  0  0  0  0  0  0
    1.6417   -0.1092   -0.9026 C   0  0  3  0  0  0  0  0  0  0  0  0
   -0.0093   -0.2625   -2.8534 C   0  0  0  0  0  0  0  0  0  0  0  0
   -4.6204    0.0947   -2.1384 C   0  0  0  0  0  0  0  0  0  0  0  0
    2.7194   -0.9904   -1.6017 C   0  0  3  0  0  0  0  0  0  0  0  0
    2.4646   -2.4973   -1.4197 C   0  0  0  0  0  0  0  0  0  0  0  0
    4.1651   -0.6653   -1.1487 C   0  0  0  0  0  0  0  0  0  0  0  0
    4.4571   -0.8653    0.3514 C   0  0  0  0  0  0  0  0  0  0  0  0
    5.9267   -0.5352    0.6587 C   0  0  0  0  0  0  0  0  0  0  0  0
    6.3249   -0.8211    2.1195 C   0  0  0  0  0  0  0  0  0  0  0  0
    7.8322   -0.5892    2.2856 C   0  0  0  0  0  0  0  0  0  0  0  0
    5.5751    0.0705    3.1209 C   0  0  0  0  0  0  0  0  0  0  0  0
   -8.2906    1.0482    0.7780 O   0  0  0  0  0  0  0  0  0  0  0  0
  1  2  1  0  0  0  0
  1 10  1  0  0  0  0
  2  3  1  0  0  0  0
  3  4  1  0  0  0  0
  3 28  1  0  0  0  0
  4  5  1  0  0  0  0
  5  6  2  0  0  0  0
  5 10  1  0  0  0  0
  6  7  1  0  0  0  0
  7  8  1  0  0  0  0
  8  9  1  0  0  0  0
  8 14  1  0  0  0  0
  9 10  1  0  0  0  0
  9 11  1  0  0  0  0
 10 19  1  0  0  0  0
 11 12  1  0  0  0  0
 12 13  1  0  0  0  0
 13 14  1  0  0  0  0
 13 17  1  0  0  0  0
 13 18  1  0  0  0  0
 14 15  1  0  0  0  0
 15 16  1  0  0  0  0
 16 17  1  0  0  0  0
 17 20  1  0  0  0  0
 20 21  1  0  0  0  0
 20 22  1  0  0  0  0
 22 23  1  0  0  0  0
 23 24  1  0  0  0  0
 24 25  1  0  0  0  0
 25 26  1  0  0  0  0
 25 27  1  0  0  0  0
M  END
$$$$
CLR_2rh1_C_413
  PyMOL2.2          3D                             0

 28 31  0  0  1  0  0  0  0  0999 V2000
   -5.0662   -0.7583    0.2051 C   0  0  0  0  0  0  0  0  0  0  0  0
   -6.5896   -0.5404    0.2655 C   0  0  0  0  0  0  0  0  0  0  0  0
   -6.8904    0.8661    0.7803 C   0  0  3  0  0  0  0  0  0  0  0  0
   -6.2130    1.9331   -0.0854 C   0  0  0  0  0  0  0  0  0  0  0  0
   -4.7173    1.6984   -0.2351 C   0  0  0  0  0  0  0  0  0  0  0  0
   -3.8584    2.7151   -0.0464 C   0  0  0  0  0  0  0  0  0  0  0  0
   -2.3588    2.5851   -0.1678 C   0  0  0  0  0  0  0  0  0  0  0  0
   -1.9011    1.2992   -0.8803 C   0  0  3  0  0  0  0  0  0  0  0  0
   -2.7328    0.0925   -0.3764 C   0  0  3  0  0  0  0  0  0  0  0  0
   -4.2745    0.2827   -0.6407 C   0  0  3  0  0  0  0  0  0  0  0  0
   -2.1590   -1.2673   -0.8621 C   0  0  0  0  0  0  0  0  0  0  0  0
   -0.6349   -1.4045   -0.6699 C   0  0  0  0  0  0  0  0  0  0  0  0
    0.1465   -0.2354   -1.3097 C   0  0  3  0  0  0  0  0  0  0  0  0
   -0.4006    1.0381   -0.6355 C   0  0  3  0  0  0  0  0  0  0  0  0
    0.5808    2.1334   -1.0483 C   0  0  0  0  0  0  0  0  0  0  0  0
    1.9279    1.4015   -1.0848 C   0  0  0  0  0  0  0  0  0  0  0  0
    1.6421   -0.1088   -0.9027 C   0  0  3  0  0  0  0  0  0  0  0  0
   -0.0102   -0.2627   -2.8535 C   0  0  0  0  0  0  0  0  0  0  0  0
   -4.6202    0.0946   -2.1384 C   0  0  0  0  0  0  0  0  0  0  0  0
    2.7189   -0.9908   -1.6019 C   0  0  3  0  0  0  0  0  0  0  0  0
    2.4630   -2.4984   -1.4218 C   0  0  0  0  0  0  0  0  0  0  0  0
    4.1643   -0.6667   -1.1481 C   0  0  0  0  0  0  0  0  0  0  0  0
    4.4534   -0.8600    0.3528 C   0  0  0  0  0  0  0  0  0  0  0  0
    5.9267   -0.5480    0.6588 C   0  0  0  0  0  0  0  0  0  0  0  0
    6.2625   -0.5918    2.1612 C   0  0  0  0  0  0  0  0  0  0  0  0
    6.0916   -1.9942    2.7643 C   0  0  0  0  0  0  0  0  0  0  0  0
    7.7142   -0.1392    2.3680 C   0  0  0  0  0  0  0  0  0  0  0  0
   -8.2908    1.0484    0.7768 O   0  0  0  0  0  0  0  0  0  0  0  0
  1  2  1  0  0  0  0
  1 10  1  0  0  0  0
  2  3  1  0  0  0  0
  3  4  1  0  0  0  0
  3 28  1  0  0  0  0
  4  5  1  0  0  0  0
  5  6  2  0  0  0  0
  5 10  1  0  0  0  0
  6  7  1  0  0  0  0
  7  8  1  0  0  0  0
  8  9  1  0  0  0  0
  8 14  1  0  0  0  0
  9 10  1  0  0  0  0
  9 11  1  0  0  0  0
 10 19  1  0  0  0  0
 11 12  1  0  0  0  0
 12 13  1  0  0  0  0
 13 14  1  0  0  0  0
 13 17  1  0  0  0  0
 13 18  1  0  0  0  0
 14 15  1  0  0  0  0
 15 16  1  0  0  0  0
 16 17  1  0  0  0  0
 17 20  1  0  0  0  0
 20 21  1  0  0  0  0
 20 22  1  0  0  0  0
 22 23  1  0  0  0  0
 23 24  1  0  0  0  0
 24 25  1  0  0  0  0
 25 26  1  0  0  0  0
 25 27  1  0  0  0  0
M  END
$$$$
CLR_2rh1_C_413
  PyMOL2.2          3D                             0

 28 31  0  0  1  0  0  0  0  0999 V2000
   -5.0797   -0.7721    0.1807 C   0  0  0  0  0  0  0  0  0  0  0  0
   -6.6040   -0.5577    0.2331 C   0  0  0  0  0  0  0  0  0  0  0  0
   -6.9102    0.8458    0.7495 C   0  0  3  0  0  0  0  0  0  0  0  0
   -6.2315    1.9171   -0.1094 C   0  0  0  0  0  0  0  0  0  0  0  0
   -4.7331    1.6869   -0.2520 C   0  0  0  0  0  0  0  0  0  0  0  0
   -3.8793    2.7051   -0.0560 C   0  0  0  0  0  0  0  0  0  0  0  0
   -2.3785    2.5781   -0.1705 C   0  0  0  0  0  0  0  0  0  0  0  0
   -1.9141    1.2953   -0.8829 C   0  0  3  0  0  0  0  0  0  0  0  0
   -2.7454    0.0860   -0.3874 C   0  0  3  0  0  0  0  0  0  0  0  0
   -4.2859    0.2731   -0.6589 C   0  0  3  0  0  0  0  0  0  0  0  0
   -2.1656   -1.2719   -0.8733 C   0  0  0  0  0  0  0  0  0  0  0  0
   -0.6427   -1.4060   -0.6713 C   0  0  0  0  0  0  0  0  0  0  0  0
    0.1399   -0.2332   -1.3047 C   0  0  3  0  0  0  0  0  0  0  0  0
   -0.4136    1.0385   -0.6315 C   0  0  3  0  0  0  0  0  0  0  0  0
    0.5670    2.1359   -1.0382 C   0  0  0  0  0  0  0  0  0  0  0  0
    1.9159    1.4063   -1.0658 C   0  0  0  0  0  0  0  0  0  0  0  0
    1.6322   -0.1048   -0.8882 C   0  0  3  0  0  0  0  0  0  0  0  0
   -0.0079   -0.2566   -2.8496 C   0  0  0  0  0  0  0  0  0  0  0  0
   -4.6228    0.0887   -2.1581 C   0  0  0  0  0  0  0  0  0  0  0  0
    2.7154   -0.9833   -1.5831 C   0  0  3  0  0  0  0  0  0  0  0  0
    2.4555   -2.4920   -1.4180 C   0  0  0  0  0  0  0  0  0  0  0  0
    4.1564   -0.6607   -1.1123 C   0  0  0  0  0  0  0  0  0  0  0  0
    4.4263   -0.8490    0.3939 C   0  0  0  0  0  0  0  0  0  0  0  0
    5.9109   -0.6774    0.7673 C   0  0  0  0  0  0  0  0  0  0  0  0
    6.5394    0.6952    0.4485 C   0  0  0  0  0  0  0  0  0  0  0  0
    5.8280    1.8490    1.1689 C   0  0  0  0  0  0  0  0  0  0  0  0
    8.0148    0.6814    0.8724 C   0  0  0  0  0  0  0  0  0  0  0  0
   -8.3115    1.0251    0.7397 O   0  0  0  0  0  0  0  0  0  0  0  0
  1  2  1  0  0  0  0
  1 10  1  0  0  0  0
  2  3  1  0  0  0  0
  3  4  1  0  0  0  0
  3 28  1  0  0  0  0
  4  5  1  0  0  0  0
  5  6  2  0  0  0  0
  5 10  1  0  0  0  0
  6  7  1  0  0  0  0
  7  8  1  0  0  0  0
  8  9  1  0  0  0  0
  8 14  1  0  0  0  0
  9 10  1  0  0  0  0
  9 11  1  0  0  0  0
 10 19  1  0  0  0  0
 11 12  1  0  0  0  0
 12 13  1  0  0  0  0
 13 14  1  0  0  0  0
 13 17  1  0  0  0  0
 13 18  1  0  0  0  0
 14 15  1  0  0  0  0
 15 16  1  0  0  0  0
 16 17  1  0  0  0  0
 17 20  1  0  0  0  0
 20 21  1  0  0  0  0
 20 22  1  0  0  0  0
 22 23  1  0  0  0  0
 23 24  1  0  0  0  0
 24 25  1  0  0  0  0
 25 26  1  0  0  0  0
 25 27  1  0  0  0  0
M  END
$$$$
CLR_2rh1_C_413
  PyMOL2.2          3D                             0

 28 31  0  0  1  0  0  0  0  0999 V2000
   -5.0657   -0.7579    0.2054 C   0  0  0  0  0  0  0  0  0  0  0  0
   -6.5894   -0.5408    0.2655 C   0  0  0  0  0  0  0  0  0  0  0  0
   -6.8903    0.8655    0.7816 C   0  0  3  0  0  0  0  0  0  0  0  0
   -6.2131    1.9329   -0.0849 C   0  0  0  0  0  0  0  0  0  0  0  0
   -4.7169    1.6990   -0.2345 C   0  0  0  0  0  0  0  0  0  0  0  0
   -3.8586    2.7149   -0.0472 C   0  0  0  0  0  0  0  0  0  0  0  0
   -2.3586    2.5850   -0.1692 C   0  0  0  0  0  0  0  0  0  0  0  0
   -1.9012    1.2987   -0.8803 C   0  0  3  0  0  0  0  0  0  0  0  0
   -2.7334    0.0926   -0.3771 C   0  0  3  0  0  0  0  0  0  0  0  0
   -4.2745    0.2835   -0.6409 C   0  0  3  0  0  0  0  0  0  0  0  0
   -2.1586   -1.2679   -0.8630 C   0  0  0  0  0  0  0  0  0  0  0  0
   -0.6354   -1.4044   -0.6700 C   0  0  0  0  0  0  0  0  0  0  0  0
    0.1472   -0.2352   -1.3098 C   0  0  3  0  0  0  0  0  0  0  0  0
   -0.4006    1.0385   -0.6360 C   0  0  3  0  0  0  0  0  0  0  0  0
    0.5803    2.1340   -1.0482 C   0  0  0  0  0  0  0  0  0  0  0  0
    1.9276    1.4008   -1.0838 C   0  0  0  0  0  0  0  0  0  0  0  0
    1.6418   -0.1093   -0.9028 C   0  0  3  0  0  0  0  0  0  0  0  0
   -0.0094   -0.2628   -2.8538 C   0  0  0  0  0  0  0  0  0  0  0  0
   -4.6213    0.0954   -2.1384 C   0  0  0  0  0  0  0  0  0  0  0  0
    2.7194   -0.9907   -1.6007 C   0  0  3  0  0  0  0  0  0  0  0  0
    2.4649   -2.4972   -1.4177 C   0  0  0  0  0  0  0  0  0  0  0  0
    4.1655   -0.6650   -1.1480 C   0  0  0  0  0  0  0  0  0  0  0  0
    4.4563   -0.8563    0.3517 C   0  0  0  0  0  0  0  0  0  0  0  0
    5.9306   -0.5338    0.6549 C   0  0  0  0  0  0  0  0  0  0  0  0
    6.3585   -0.6734    2.1303 C   0  0  0  0  0  0  0  0  0  0  0  0
    5.6029    0.2943    3.0524 C   0  0  0  0  0  0  0  0  0  0  0  0
    6.1995   -2.1082    2.6511 C   0  0  0  0  0  0  0  0  0  0  0  0
   -8.2902    1.0483    0.7786 O   0  0  0  0  0  0  0  0  0  0  0  0
  1  2  1  0  0  0  0
  1 10  1  0  0  0  0
  2  3  1  0  0  0  0
  3  4  1  0  0  0  0
  3 28  1  0  0  0  0
  4  5  1  0  0  0  0
  5  6  2  0  0  0  0
  5 10  1  0  0  0  0
  6  7  1  0  0  0  0
  7  8  1  0  0  0  0
  8  9  1  0  0  0  0
  8 14  1  0  0  0  0
  9 10  1  0  0  0  0
  9 11  1  0  0  0  0
 10 19  1  0  0  0  0
 11 12  1  0  0  0  0
 12 13  1  0  0  0  0
 13 14  1  0  0  0  0
 13 17  1  0  0  0  0
 13 18  1  0  0  0  0
 14 15  1  0  0  0  0
 15 16  1  0  0  0  0
 16 17  1  0  0  0  0
 17 20  1  0  0  0  0
 20 21  1  0  0  0  0
 20 22  1  0  0  0  0
 22 23  1  0  0  0  0
 23 24  1  0  0  0  0
 24 25  1  0  0  0  0
 25 26  1  0  0  0  0
 25 27  1  0  0  0  0
M  END
$$$$
CLR_2rh1_C_413
  PyMOL2.2          3D                             0

 28 31  0  0  1  0  0  0  0  0999 V2000
   -5.0560   -0.7345    0.2318 C   0  0  0  0  0  0  0  0  0  0  0  0
   -6.5748   -0.5008    0.3374 C   0  0  0  0  0  0  0  0  0  0  0  0
   -6.8448    0.8918    0.9034 C   0  0  3  0  0  0  0  0  0  0  0  0
   -6.1757    1.9772    0.0534 C   0  0  0  0  0  0  0  0  0  0  0  0
   -4.6870    1.7305   -0.1407 C   0  0  0  0  0  0  0  0  0  0  0  0
   -3.8117    2.7300    0.0575 C   0  0  0  0  0  0  0  0  0  0  0  0
   -2.3169    2.5858   -0.1059 C   0  0  0  0  0  0  0  0  0  0  0  0
   -1.8934    1.3182   -0.8694 C   0  0  3  0  0  0  0  0  0  0  0  0
   -2.7270    0.1063   -0.3828 C   0  0  3  0  0  0  0  0  0  0  0  0
   -4.2728    0.3227   -0.6008 C   0  0  3  0  0  0  0  0  0  0  0  0
   -2.1830   -1.2449   -0.9245 C   0  0  0  0  0  0  0  0  0  0  0  0
   -0.6567   -1.4065   -0.7760 C   0  0  0  0  0  0  0  0  0  0  0  0
    0.1230   -0.2265   -1.3997 C   0  0  3  0  0  0  0  0  0  0  0  0
   -0.3909    1.0318   -0.6727 C   0  0  3  0  0  0  0  0  0  0  0  0
    0.5935    2.1281   -1.0751 C   0  0  0  0  0  0  0  0  0  0  0  0
    1.9296    1.3803   -1.1696 C   0  0  0  0  0  0  0  0  0  0  0  0
    1.6300   -0.1309   -1.0280 C   0  0  3  0  0  0  0  0  0  0  0  0
   -0.0741   -0.2031   -2.9395 C   0  0  0  0  0  0  0  0  0  0  0  0
   -4.6582    0.1862   -2.0946 C   0  0  0  0  0  0  0  0  0  0  0  0
    2.6770   -1.0019   -1.7825 C   0  0  3  0  0  0  0  0  0  0  0  0
    2.4114   -2.5114   -1.6388 C   0  0  0  0  0  0  0  0  0  0  0  0
    4.1407   -0.7078   -1.3665 C   0  0  0  0  0  0  0  0  0  0  0  0
    4.4831   -0.9787    0.1118 C   0  0  0  0  0  0  0  0  0  0  0  0
    5.9317   -0.5998    0.4759 C   0  0  0  0  0  0  0  0  0  0  0  0
    7.0462   -1.3342   -0.2973 C   0  0  0  0  0  0  0  0  0  0  0  0
    8.4107   -0.8473    0.2060 C   0  0  0  0  0  0  0  0  0  0  0  0
    6.9703   -2.8588   -0.1336 C   0  0  0  0  0  0  0  0  0  0  0  0
   -8.2419    1.0900    0.9410 O   0  0  0  0  0  0  0  0  0  0  0  0
  1  2  1  0  0  0  0
  1 10  1  0  0  0  0
  2  3  1  0  0  0  0
  3  4  1  0  0  0  0
  3 28  1  0  0  0  0
  4  5  1  0  0  0  0
  5  6  2  0  0  0  0
  5 10  1  0  0  0  0
  6  7  1  0  0  0  0
  7  8  1  0  0  0  0
  8  9  1  0  0  0  0
  8 14  1  0  0  0  0
  9 10  1  0  0  0  0
  9 11  1  0  0  0  0
 10 19  1  0  0  0  0
 11 12  1  0  0  0  0
 12 13  1  0  0  0  0
 13 14  1  0  0  0  0
 13 17  1  0  0  0  0
 13 18  1  0  0  0  0
 14 15  1  0  0  0  0
 15 16  1  0  0  0  0
 16 17  1  0  0  0  0
 17 20  1  0  0  0  0
 20 21  1  0  0  0  0
 20 22  1  0  0  0  0
 22 23  1  0  0  0  0
 23 24  1  0  0  0  0
 24 25  1  0  0  0  0
 25 26  1  0  0  0  0
 25 27  1  0  0  0  0
M  END
$$$$
CLR_2rh1_C_413
  PyMOL2.2          3D                             0

 28 31  0  0  1  0  0  0  0  0999 V2000
   -5.0828   -0.7687    0.1823 C   0  0  0  0  0  0  0  0  0  0  0  0
   -6.6064   -0.5538    0.2341 C   0  0  0  0  0  0  0  0  0  0  0  0
   -6.9128    0.8514    0.7491 C   0  0  3  0  0  0  0  0  0  0  0  0
   -6.2314    1.9202   -0.1115 C   0  0  0  0  0  0  0  0  0  0  0  0
   -4.7351    1.6884   -0.2529 C   0  0  0  0  0  0  0  0  0  0  0  0
   -3.8790    2.7053   -0.0576 C   0  0  0  0  0  0  0  0  0  0  0  0
   -2.3778    2.5758   -0.1700 C   0  0  0  0  0  0  0  0  0  0  0  0
   -1.9152    1.2932   -0.8825 C   0  0  3  0  0  0  0  0  0  0  0  0
   -2.7481    0.0854   -0.3860 C   0  0  3  0  0  0  0  0  0  0  0  0
   -4.2879    0.2740   -0.6581 C   0  0  3  0  0  0  0  0  0  0  0  0
   -2.1681   -1.2719   -0.8718 C   0  0  0  0  0  0  0  0  0  0  0  0
   -0.6459   -1.4051   -0.6666 C   0  0  0  0  0  0  0  0  0  0  0  0
    0.1439   -0.2376   -1.3047 C   0  0  3  0  0  0  0  0  0  0  0  0
   -0.4140    1.0329   -0.6319 C   0  0  3  0  0  0  0  0  0  0  0  0
    0.5599    2.1334   -1.0419 C   0  0  0  0  0  0  0  0  0  0  0  0
    1.9105    1.4070   -1.0523 C   0  0  0  0  0  0  0  0  0  0  0  0
    1.6392   -0.1103   -0.8929 C   0  0  3  0  0  0  0  0  0  0  0  0
   -0.0053   -0.2570   -2.8501 C   0  0  0  0  0  0  0  0  0  0  0  0
   -4.6252    0.0873   -2.1571 C   0  0  0  0  0  0  0  0  0  0  0  0
    2.7348   -0.9728   -1.5955 C   0  0  3  0  0  0  0  0  0  0  0  0
    2.4417   -2.4815   -1.4936 C   0  0  0  0  0  0  0  0  0  0  0  0
    4.1288   -0.6696   -0.9852 C   0  0  0  0  0  0  0  0  0  0  0  0
    5.3110   -1.3298   -1.7164 C   0  0  0  0  0  0  0  0  0  0  0  0
    6.6460   -0.7896   -1.1762 C   0  0  0  0  0  0  0  0  0  0  0  0
    7.8787   -1.5047   -1.7634 C   0  0  0  0  0  0  0  0  0  0  0  0
    8.0210   -1.2862   -3.2768 C   0  0  0  0  0  0  0  0  0  0  0  0
    9.1429   -0.9852   -1.0668 C   0  0  0  0  0  0  0  0  0  0  0  0
   -8.3130    1.0318    0.7381 O   0  0  0  0  0  0  0  0  0  0  0  0
  1  2  1  0  0  0  0
  1 10  1  0  0  0  0
  2  3  1  0  0  0  0
  3  4  1  0  0  0  0
  3 28  1  0  0  0  0
  4  5  1  0  0  0  0
  5  6  2  0  0  0  0
  5 10  1  0  0  0  0
  6  7  1  0  0  0  0
  7  8  1  0  0  0  0
  8  9  1  0  0  0  0
  8 14  1  0  0  0  0
  9 10  1  0  0  0  0
  9 11  1  0  0  0  0
 10 19  1  0  0  0  0
 11 12  1  0  0  0  0
 12 13  1  0  0  0  0
 13 14  1  0  0  0  0
 13 17  1  0  0  0  0
 13 18  1  0  0  0  0
 14 15  1  0  0  0  0
 15 16  1  0  0  0  0
 16 17  1  0  0  0  0
 17 20  1  0  0  0  0
 20 21  1  0  0  0  0
 20 22  1  0  0  0  0
 22 23  1  0  0  0  0
 23 24  1  0  0  0  0
 24 25  1  0  0  0  0
 25 26  1  0  0  0  0
 25 27  1  0  0  0  0
M  END
$$$$
CLR_2rh1_C_413
  PyMOL2.2          3D                             0

 28 31  0  0  1  0  0  0  0  0999 V2000
   -5.1527   -0.7182    0.1609 C   0  0  0  0  0  0  0  0  0  0  0  0
   -6.6719   -0.4725    0.1853 C   0  0  0  0  0  0  0  0  0  0  0  0
   -6.9595    0.9391    0.6913 C   0  0  3  0  0  0  0  0  0  0  0  0
   -6.2432    1.9928   -0.1601 C   0  0  0  0  0  0  0  0  0  0  0  0
   -4.7488    1.7310   -0.2755 C   0  0  0  0  0  0  0  0  0  0  0  0
   -3.8775    2.7314   -0.0679 C   0  0  0  0  0  0  0  0  0  0  0  0
   -2.3767    2.5740   -0.1546 C   0  0  0  0  0  0  0  0  0  0  0  0
   -1.9263    1.2786   -0.8538 C   0  0  3  0  0  0  0  0  0  0  0  0
   -2.7914    0.0900   -0.3684 C   0  0  3  0  0  0  0  0  0  0  0  0
   -4.3222    0.3067   -0.6684 C   0  0  3  0  0  0  0  0  0  0  0  0
   -2.2301   -1.2794   -0.8398 C   0  0  0  0  0  0  0  0  0  0  0  0
   -0.7146   -1.4421   -0.6054 C   0  0  0  0  0  0  0  0  0  0  0  0
    0.1093   -0.2934   -1.2333 C   0  0  3  0  0  0  0  0  0  0  0  0
   -0.4360    0.9905   -0.5753 C   0  0  3  0  0  0  0  0  0  0  0  0
    0.5678    2.0702   -0.9710 C   0  0  0  0  0  0  0  0  0  0  0  0
    1.9038    1.3179   -0.9533 C   0  0  0  0  0  0  0  0  0  0  0  0
    1.6002   -0.1933   -0.7945 C   0  0  3  0  0  0  0  0  0  0  0  0
   -0.0114   -0.3150   -2.7815 C   0  0  0  0  0  0  0  0  0  0  0  0
   -4.6367    0.1222   -2.1735 C   0  0  0  0  0  0  0  0  0  0  0  0
    2.6919   -1.0791   -1.4720 C   0  0  3  0  0  0  0  0  0  0  0  0
    2.3648   -2.5818   -1.3721 C   0  0  0  0  0  0  0  0  0  0  0  0
    4.0787   -0.8015   -0.8339 C   0  0  0  0  0  0  0  0  0  0  0  0
    5.2645   -1.4881   -1.5375 C   0  0  0  0  0  0  0  0  0  0  0  0
    6.5990   -0.9831   -0.9623 C   0  0  0  0  0  0  0  0  0  0  0  0
    7.8335   -1.5478   -1.6918 C   0  0  0  0  0  0  0  0  0  0  0  0
    9.0971   -0.8771   -1.1373 C   0  0  0  0  0  0  0  0  0  0  0  0
    7.9718   -3.0690   -1.5322 C   0  0  0  0  0  0  0  0  0  0  0  0
   -8.3555    1.1464    0.6558 O   0  0  0  0  0  0  0  0  0  0  0  0
  1  2  1  0  0  0  0
  1 10  1  0  0  0  0
  2  3  1  0  0  0  0
  3  4  1  0  0  0  0
  3 28  1  0  0  0  0
  4  5  1  0  0  0  0
  5  6  2  0  0  0  0
  5 10  1  0  0  0  0
  6  7  1  0  0  0  0
  7  8  1  0  0  0  0
  8  9  1  0  0  0  0
  8 14  1  0  0  0  0
  9 10  1  0  0  0  0
  9 11  1  0  0  0  0
 10 19  1  0  0  0  0
 11 12  1  0  0  0  0
 12 13  1  0  0  0  0
 13 14  1  0  0  0  0
 13 17  1  0  0  0  0
 13 18  1  0  0  0  0
 14 15  1  0  0  0  0
 15 16  1  0  0  0  0
 16 17  1  0  0  0  0
 17 20  1  0  0  0  0
 20 21  1  0  0  0  0
 20 22  1  0  0  0  0
 22 23  1  0  0  0  0
 23 24  1  0  0  0  0
 24 25  1  0  0  0  0
 25 26  1  0  0  0  0
 25 27  1  0  0  0  0
M  END
$$$$
CLR_2rh1_C_413
  PyMOL2.2          3D                             0

 28 31  0  0  1  0  0  0  0  0999 V2000
   -5.0682   -0.7565    0.2073 C   0  0  0  0  0  0  0  0  0  0  0  0
   -6.5924   -0.5370    0.2667 C   0  0  0  0  0  0  0  0  0  0  0  0
   -6.8923    0.8693    0.7805 C   0  0  3  0  0  0  0  0  0  0  0  0
   -6.2132    1.9353   -0.0873 C   0  0  0  0  0  0  0  0  0  0  0  0
   -4.7172    1.6996   -0.2352 C   0  0  0  0  0  0  0  0  0  0  0  0
   -3.8589    2.7152   -0.0473 C   0  0  0  0  0  0  0  0  0  0  0  0
   -2.3586    2.5823   -0.1679 C   0  0  0  0  0  0  0  0  0  0  0  0
   -1.9017    1.2961   -0.8800 C   0  0  3  0  0  0  0  0  0  0  0  0
   -2.7349    0.0925   -0.3757 C   0  0  3  0  0  0  0  0  0  0  0  0
   -4.2764    0.2830   -0.6402 C   0  0  3  0  0  0  0  0  0  0  0  0
   -2.1612   -1.2673   -0.8616 C   0  0  0  0  0  0  0  0  0  0  0  0
   -0.6387   -1.4046   -0.6650 C   0  0  0  0  0  0  0  0  0  0  0  0
    0.1506   -0.2400   -1.3099 C   0  0  3  0  0  0  0  0  0  0  0  0
   -0.4008    1.0340   -0.6362 C   0  0  3  0  0  0  0  0  0  0  0  0
    0.5743    2.1306   -1.0527 C   0  0  0  0  0  0  0  0  0  0  0  0
    1.9227    1.4014   -1.0714 C   0  0  0  0  0  0  0  0  0  0  0  0
    1.6481   -0.1141   -0.9068 C   0  0  3  0  0  0  0  0  0  0  0  0
   -0.0065   -0.2625   -2.8546 C   0  0  0  0  0  0  0  0  0  0  0  0
   -4.6227    0.0938   -2.1372 C   0  0  0  0  0  0  0  0  0  0  0  0
    2.7374   -0.9793   -1.6134 C   0  0  3  0  0  0  0  0  0  0  0  0
    2.4505   -2.4881   -1.5009 C   0  0  0  0  0  0  0  0  0  0  0  0
    4.1358   -0.6663   -1.0150 C   0  0  0  0  0  0  0  0  0  0  0  0
    5.3504   -1.3933   -1.6267 C   0  0  0  0  0  0  0  0  0  0  0  0
    5.4752   -1.1833   -3.1461 C   0  0  0  0  0  0  0  0  0  0  0  0
    6.7980   -1.7137   -3.7294 C   0  0  0  0  0  0  0  0  0  0  0  0
    6.9306   -3.2371   -3.5924 C   0  0  0  0  0  0  0  0  0  0  0  0
    6.8788   -1.3410   -5.2158 C   0  0  0  0  0  0  0  0  0  0  0  0
   -8.2919    1.0536    0.7769 O   0  0  0  0  0  0  0  0  0  0  0  0
  1  2  1  0  0  0  0
  1 10  1  0  0  0  0
  2  3  1  0  0  0  0
  3  4  1  0  0  0  0
  3 28  1  0  0  0  0
  4  5  1  0  0  0  0
  5  6  2  0  0  0  0
  5 10  1  0  0  0  0
  6  7  1  0  0  0  0
  7  8  1  0  0  0  0
  8  9  1  0  0  0  0
  8 14  1  0  0  0  0
  9 10  1  0  0  0  0
  9 11  1  0  0  0  0
 10 19  1  0  0  0  0
 11 12  1  0  0  0  0
 12 13  1  0  0  0  0
 13 14  1  0  0  0  0
 13 17  1  0  0  0  0
 13 18  1  0  0  0  0
 14 15  1  0  0  0  0
 15 16  1  0  0  0  0
 16 17  1  0  0  0  0
 17 20  1  0  0  0  0
 20 21  1  0  0  0  0
 20 22  1  0  0  0  0
 22 23  1  0  0  0  0
 23 24  1  0  0  0  0
 24 25  1  0  0  0  0
 25 26  1  0  0  0  0
 25 27  1  0  0  0  0
M  END
$$$$
CLR_2rh1_C_413
  PyMOL2.2          3D                             0

 28 31  0  0  1  0  0  0  0  0999 V2000
   -5.0942   -0.7431    0.1968 C   0  0  0  0  0  0  0  0  0  0  0  0
   -6.6145   -0.5071    0.2537 C   0  0  0  0  0  0  0  0  0  0  0  0
   -6.9011    0.9002    0.7732 C   0  0  3  0  0  0  0  0  0  0  0  0
   -6.2075    1.9626   -0.0876 C   0  0  0  0  0  0  0  0  0  0  0  0
   -4.7142    1.7108   -0.2337 C   0  0  0  0  0  0  0  0  0  0  0  0
   -3.8450    2.7153   -0.0391 C   0  0  0  0  0  0  0  0  0  0  0  0
   -2.3460    2.5675   -0.1568 C   0  0  0  0  0  0  0  0  0  0  0  0
   -1.9025    1.2791   -0.8723 C   0  0  3  0  0  0  0  0  0  0  0  0
   -2.7497    0.0821   -0.3764 C   0  0  3  0  0  0  0  0  0  0  0  0
   -4.2885    0.2915   -0.6436 C   0  0  3  0  0  0  0  0  0  0  0  0
   -2.1894   -1.2813   -0.8667 C   0  0  0  0  0  0  0  0  0  0  0  0
   -0.6686   -1.4369   -0.6659 C   0  0  0  0  0  0  0  0  0  0  0  0
    0.1342   -0.2785   -1.3022 C   0  0  3  0  0  0  0  0  0  0  0  0
   -0.4047    0.9991   -0.6263 C   0  0  3  0  0  0  0  0  0  0  0  0
    0.5852    2.0856   -1.0361 C   0  0  0  0  0  0  0  0  0  0  0  0
    1.9246    1.3416   -1.0530 C   0  0  0  0  0  0  0  0  0  0  0  0
    1.6315   -0.1727   -0.8935 C   0  0  3  0  0  0  0  0  0  0  0  0
   -0.0181   -0.2926   -2.8475 C   0  0  0  0  0  0  0  0  0  0  0  0
   -4.6322    0.1132   -2.1425 C   0  0  0  0  0  0  0  0  0  0  0  0
    2.7107   -1.0482   -1.6016 C   0  0  3  0  0  0  0  0  0  0  0  0
    2.4043   -2.5533   -1.4962 C   0  0  0  0  0  0  0  0  0  0  0  0
    4.1126   -0.7628   -0.9979 C   0  0  0  0  0  0  0  0  0  0  0  0
    5.3186   -1.4595   -1.6629 C   0  0  0  0  0  0  0  0  0  0  0  0
    5.4456   -1.2559   -3.1861 C   0  0  0  0  0  0  0  0  0  0  0  0
    5.4934    0.2096   -3.6645 C   0  0  0  0  0  0  0  0  0  0  0  0
    6.7025    0.9695   -3.1000 C   0  0  0  0  0  0  0  0  0  0  0  0
    5.5599    0.2365   -5.1969 C   0  0  0  0  0  0  0  0  0  0  0  0
   -8.2985    1.0998    0.7659 O   0  0  0  0  0  0  0  0  0  0  0  0
  1  2  1  0  0  0  0
  1 10  1  0  0  0  0
  2  3  1  0  0  0  0
  3  4  1  0  0  0  0
  3 28  1  0  0  0  0
  4  5  1  0  0  0  0
  5  6  2  0  0  0  0
  5 10  1  0  0  0  0
  6  7  1  0  0  0  0
  7  8  1  0  0  0  0
  8  9  1  0  0  0  0
  8 14  1  0  0  0  0
  9 10  1  0  0  0  0
  9 11  1  0  0  0  0
 10 19  1  0  0  0  0
 11 12  1  0  0  0  0
 12 13  1  0  0  0  0
 13 14  1  0  0  0  0
 13 17  1  0  0  0  0
 13 18  1  0  0  0  0
 14 15  1  0  0  0  0
 15 16  1  0  0  0  0
 16 17  1  0  0  0  0
 17 20  1  0  0  0  0
 20 21  1  0  0  0  0
 20 22  1  0  0  0  0
 22 23  1  0  0  0  0
 23 24  1  0  0  0  0
 24 25  1  0  0  0  0
 25 26  1  0  0  0  0
 25 27  1  0  0  0  0
M  END
$$$$
CLR_2rh1_C_413
  PyMOL2.2          3D                             0

 28 31  0  0  1  0  0  0  0  0999 V2000
   -5.0831   -0.7692    0.1832 C   0  0  0  0  0  0  0  0  0  0  0  0
   -6.6067   -0.5542    0.2343 C   0  0  0  0  0  0  0  0  0  0  0  0
   -6.9130    0.8509    0.7488 C   0  0  3  0  0  0  0  0  0  0  0  0
   -6.2318    1.9203   -0.1121 C   0  0  0  0  0  0  0  0  0  0  0  0
   -4.7350    1.6883   -0.2530 C   0  0  0  0  0  0  0  0  0  0  0  0
   -3.8790    2.7055   -0.0573 C   0  0  0  0  0  0  0  0  0  0  0  0
   -2.3779    2.5766   -0.1704 C   0  0  0  0  0  0  0  0  0  0  0  0
   -1.9150    1.2938   -0.8825 C   0  0  3  0  0  0  0  0  0  0  0  0
   -2.7473    0.0853   -0.3852 C   0  0  3  0  0  0  0  0  0  0  0  0
   -4.2879    0.2740   -0.6584 C   0  0  3  0  0  0  0  0  0  0  0  0
   -2.1674   -1.2715   -0.8717 C   0  0  0  0  0  0  0  0  0  0  0  0
   -0.6461   -1.4056   -0.6671 C   0  0  0  0  0  0  0  0  0  0  0  0
    0.1429   -0.2379   -1.3047 C   0  0  3  0  0  0  0  0  0  0  0  0
   -0.4145    1.0332   -0.6316 C   0  0  3  0  0  0  0  0  0  0  0  0
    0.5610    2.1334   -1.0412 C   0  0  0  0  0  0  0  0  0  0  0  0
    1.9108    1.4070   -1.0521 C   0  0  0  0  0  0  0  0  0  0  0  0
    1.6392   -0.1104   -0.8940 C   0  0  3  0  0  0  0  0  0  0  0  0
   -0.0050   -0.2569   -2.8502 C   0  0  0  0  0  0  0  0  0  0  0  0
   -4.6254    0.0866   -2.1576 C   0  0  0  0  0  0  0  0  0  0  0  0
    2.7344   -0.9730   -1.5954 C   0  0  3  0  0  0  0  0  0  0  0  0
    2.4427   -2.4817   -1.4916 C   0  0  0  0  0  0  0  0  0  0  0  0
    4.1271   -0.6681   -0.9855 C   0  0  0  0  0  0  0  0  0  0  0  0
    5.3097   -1.3414   -1.7074 C   0  0  0  0  0  0  0  0  0  0  0  0
    6.6765   -0.7732   -1.2787 C   0  0  0  0  0  0  0  0  0  0  0  0
    7.0073   -0.8761    0.2250 C   0  0  0  0  0  0  0  0  0  0  0  0
    7.0157   -2.3273    0.7273 C   0  0  0  0  0  0  0  0  0  0  0  0
    8.3867   -0.2535    0.4791 C   0  0  0  0  0  0  0  0  0  0  0  0
   -8.3130    1.0311    0.7372 O   0  0  0  0  0  0  0  0  0  0  0  0
  1  2  1  0  0  0  0
  1 10  1  0  0  0  0
  2  3  1  0  0  0  0
  3  4  1  0  0  0  0
  3 28  1  0  0  0  0
  4  5  1  0  0  0  0
  5  6  2  0  0  0  0
  5 10  1  0  0  0  0
  6  7  1  0  0  0  0
  7  8  1  0  0  0  0
  8  9  1  0  0  0  0
  8 14  1  0  0  0  0
  9 10  1  0  0  0  0
  9 11  1  0  0  0  0
 10 19  1  0  0  0  0
 11 12  1  0  0  0  0
 12 13  1  0  0  0  0
 13 14  1  0  0  0  0
 13 17  1  0  0  0  0
 13 18  1  0  0  0  0
 14 15  1  0  0  0  0
 15 16  1  0  0  0  0
 16 17  1  0  0  0  0
 17 20  1  0  0  0  0
 20 21  1  0  0  0  0
 20 22  1  0  0  0  0
 22 23  1  0  0  0  0
 23 24  1  0  0  0  0
 24 25  1  0  0  0  0
 25 26  1  0  0  0  0
 25 27  1  0  0  0  0
M  END
$$$$
CLR_2rh1_C_413
  PyMOL2.2          3D                             0

 28 31  0  0  1  0  0  0  0  0999 V2000
   -5.0694   -0.7560    0.2067 C   0  0  0  0  0  0  0  0  0  0  0  0
   -6.5920   -0.5371    0.2671 C   0  0  0  0  0  0  0  0  0  0  0  0
   -6.8924    0.8693    0.7807 C   0  0  3  0  0  0  0  0  0  0  0  0
   -6.2130    1.9349   -0.0866 C   0  0  0  0  0  0  0  0  0  0  0  0
   -4.7179    1.6992   -0.2356 C   0  0  0  0  0  0  0  0  0  0  0  0
   -3.8585    2.7155   -0.0472 C   0  0  0  0  0  0  0  0  0  0  0  0
   -2.3586    2.5822   -0.1685 C   0  0  0  0  0  0  0  0  0  0  0  0
   -1.9025    1.2964   -0.8798 C   0  0  3  0  0  0  0  0  0  0  0  0
   -2.7350    0.0922   -0.3758 C   0  0  3  0  0  0  0  0  0  0  0  0
   -4.2761    0.2829   -0.6407 C   0  0  3  0  0  0  0  0  0  0  0  0
   -2.1611   -1.2672   -0.8618 C   0  0  0  0  0  0  0  0  0  0  0  0
   -0.6376   -1.4047   -0.6650 C   0  0  0  0  0  0  0  0  0  0  0  0
    0.1498   -0.2398   -1.3096 C   0  0  3  0  0  0  0  0  0  0  0  0
   -0.4011    1.0337   -0.6364 C   0  0  3  0  0  0  0  0  0  0  0  0
    0.5747    2.1310   -1.0525 C   0  0  0  0  0  0  0  0  0  0  0  0
    1.9231    1.4013   -1.0718 C   0  0  0  0  0  0  0  0  0  0  0  0
    1.6479   -0.1147   -0.9067 C   0  0  3  0  0  0  0  0  0  0  0  0
   -0.0071   -0.2629   -2.8544 C   0  0  0  0  0  0  0  0  0  0  0  0
   -4.6225    0.0944   -2.1371 C   0  0  0  0  0  0  0  0  0  0  0  0
    2.7387   -0.9789   -1.6131 C   0  0  3  0  0  0  0  0  0  0  0  0
    2.4518   -2.4881   -1.4997 C   0  0  0  0  0  0  0  0  0  0  0  0
    4.1351   -0.6631   -1.0127 C   0  0  0  0  0  0  0  0  0  0  0  0
    5.3562   -1.4053   -1.5927 C   0  0  0  0  0  0  0  0  0  0  0  0
    5.5205   -1.2130   -3.1120 C   0  0  0  0  0  0  0  0  0  0  0  0
    6.7437   -1.9459   -3.6948 C   0  0  0  0  0  0  0  0  0  0  0  0
    6.7199   -1.8245   -5.2248 C   0  0  0  0  0  0  0  0  0  0  0  0
    8.0763   -1.3833   -3.1786 C   0  0  0  0  0  0  0  0  0  0  0  0
   -8.2916    1.0528    0.7767 O   0  0  0  0  0  0  0  0  0  0  0  0
  1  2  1  0  0  0  0
  1 10  1  0  0  0  0
  2  3  1  0  0  0  0
  3  4  1  0  0  0  0
  3 28  1  0  0  0  0
  4  5  1  0  0  0  0
  5  6  2  0  0  0  0
  5 10  1  0  0  0  0
  6  7  1  0  0  0  0
  7  8  1  0  0  0  0
  8  9  1  0  0  0  0
  8 14  1  0  0  0  0
  9 10  1  0  0  0  0
  9 11  1  0  0  0  0
 10 19  1  0  0  0  0
 11 12  1  0  0  0  0
 12 13  1  0  0  0  0
 13 14  1  0  0  0  0
 13 17  1  0  0  0  0
 13 18  1  0  0  0  0
 14 15  1  0  0  0  0
 15 16  1  0  0  0  0
 16 17  1  0  0  0  0
 17 20  1  0  0  0  0
 20 21  1  0  0  0  0
 20 22  1  0  0  0  0
 22 23  1  0  0  0  0
 23 24  1  0  0  0  0
 24 25  1  0  0  0  0
 25 26  1  0  0  0  0
 25 27  1  0  0  0  0
M  END
$$$$
CLR_2rh1_C_413
  PyMOL2.2          3D                             0

 28 31  0  0  1  0  0  0  0  0999 V2000
   -5.1001   -0.7795    0.1277 C   0  0  0  0  0  0  0  0  0  0  0  0
   -6.6241   -0.5628    0.1672 C   0  0  0  0  0  0  0  0  0  0  0  0
   -6.9338    0.8374    0.6935 C   0  0  3  0  0  0  0  0  0  0  0  0
   -6.2441    1.9150   -0.1495 C   0  0  0  0  0  0  0  0  0  0  0  0
   -4.7461    1.6827   -0.2788 C   0  0  0  0  0  0  0  0  0  0  0  0
   -3.8907    2.6968   -0.0648 C   0  0  0  0  0  0  0  0  0  0  0  0
   -2.3893    2.5672   -0.1648 C   0  0  0  0  0  0  0  0  0  0  0  0
   -1.9204    1.2914   -0.8863 C   0  0  3  0  0  0  0  0  0  0  0  0
   -2.7589    0.0789   -0.4104 C   0  0  3  0  0  0  0  0  0  0  0  0
   -4.2963    0.2714   -0.6952 C   0  0  3  0  0  0  0  0  0  0  0  0
   -2.1759   -1.2729   -0.9050 C   0  0  0  0  0  0  0  0  0  0  0  0
   -0.6555   -1.4107   -0.6874 C   0  0  0  0  0  0  0  0  0  0  0  0
    0.1403   -0.2377   -1.3061 C   0  0  3  0  0  0  0  0  0  0  0  0
   -0.4226    1.0268   -0.6252 C   0  0  3  0  0  0  0  0  0  0  0  0
    0.5569    2.1298   -1.0148 C   0  0  0  0  0  0  0  0  0  0  0  0
    1.9064    1.4036   -1.0196 C   0  0  0  0  0  0  0  0  0  0  0  0
    1.6326   -0.1162   -0.8792 C   0  0  3  0  0  0  0  0  0  0  0  0
    0.0050   -0.2398   -2.8526 C   0  0  0  0  0  0  0  0  0  0  0  0
   -4.6198    0.1015   -2.1990 C   0  0  0  0  0  0  0  0  0  0  0  0
    2.7339   -0.9722   -1.5791 C   0  0  3  0  0  0  0  0  0  0  0  0
    2.4379   -2.4814   -1.4980 C   0  0  0  0  0  0  0  0  0  0  0  0
    4.1215   -0.6772   -0.9503 C   0  0  0  0  0  0  0  0  0  0  0  0
    5.3125   -1.3334   -1.6731 C   0  0  0  0  0  0  0  0  0  0  0  0
    6.6424   -0.8012   -1.1072 C   0  0  0  0  0  0  0  0  0  0  0  0
    7.9232   -1.3927   -1.7328 C   0  0  0  0  0  0  0  0  0  0  0  0
    8.0430   -2.9053   -1.5017 C   0  0  0  0  0  0  0  0  0  0  0  0
    8.0306   -1.0924   -3.2340 C   0  0  0  0  0  0  0  0  0  0  0  0
   -8.3334    1.0186    0.6711 O   0  0  0  0  0  0  0  0  0  0  0  0
  1  2  1  0  0  0  0
  1 10  1  0  0  0  0
  2  3  1  0  0  0  0
  3  4  1  0  0  0  0
  3 28  1  0  0  0  0
  4  5  1  0  0  0  0
  5  6  2  0  0  0  0
  5 10  1  0  0  0  0
  6  7  1  0  0  0  0
  7  8  1  0  0  0  0
  8  9  1  0  0  0  0
  8 14  1  0  0  0  0
  9 10  1  0  0  0  0
  9 11  1  0  0  0  0
 10 19  1  0  0  0  0
 11 12  1  0  0  0  0
 12 13  1  0  0  0  0
 13 14  1  0  0  0  0
 13 17  1  0  0  0  0
 13 18  1  0  0  0  0
 14 15  1  0  0  0  0
 15 16  1  0  0  0  0
 16 17  1  0  0  0  0
 17 20  1  0  0  0  0
 20 21  1  0  0  0  0
 20 22  1  0  0  0  0
 22 23  1  0  0  0  0
 23 24  1  0  0  0  0
 24 25  1  0  0  0  0
 25 26  1  0  0  0  0
 25 27  1  0  0  0  0
M  END
$$$$
CLR_2rh1_C_413
  PyMOL2.2          3D                             0

 28 31  0  0  1  0  0  0  0  0999 V2000
   -5.0685   -0.7567    0.2067 C   0  0  0  0  0  0  0  0  0  0  0  0
   -6.5918   -0.5377    0.2666 C   0  0  0  0  0  0  0  0  0  0  0  0
   -6.8918    0.8684    0.7813 C   0  0  3  0  0  0  0  0  0  0  0  0
   -6.2142    1.9343   -0.0860 C   0  0  0  0  0  0  0  0  0  0  0  0
   -4.7173    1.6994   -0.2352 C   0  0  0  0  0  0  0  0  0  0  0  0
   -3.8588    2.7144   -0.0464 C   0  0  0  0  0  0  0  0  0  0  0  0
   -2.3592    2.5828   -0.1678 C   0  0  0  0  0  0  0  0  0  0  0  0
   -1.9021    1.2974   -0.8805 C   0  0  3  0  0  0  0  0  0  0  0  0
   -2.7349    0.0926   -0.3764 C   0  0  3  0  0  0  0  0  0  0  0  0
   -4.2761    0.2831   -0.6396 C   0  0  3  0  0  0  0  0  0  0  0  0
   -2.1609   -1.2664   -0.8627 C   0  0  0  0  0  0  0  0  0  0  0  0
   -0.6378   -1.4033   -0.6653 C   0  0  0  0  0  0  0  0  0  0  0  0
    0.1504   -0.2392   -1.3096 C   0  0  3  0  0  0  0  0  0  0  0  0
   -0.4012    1.0357   -0.6378 C   0  0  3  0  0  0  0  0  0  0  0  0
    0.5738    2.1310   -1.0575 C   0  0  0  0  0  0  0  0  0  0  0  0
    1.9231    1.4022   -1.0691 C   0  0  0  0  0  0  0  0  0  0  0  0
    1.6496   -0.1153   -0.9055 C   0  0  3  0  0  0  0  0  0  0  0  0
   -0.0063   -0.2609   -2.8537 C   0  0  0  0  0  0  0  0  0  0  0  0
   -4.6225    0.0946   -2.1378 C   0  0  0  0  0  0  0  0  0  0  0  0
    2.7359   -0.9847   -1.6115 C   0  0  3  0  0  0  0  0  0  0  0  0
    2.4290   -2.4910   -1.5049 C   0  0  0  0  0  0  0  0  0  0  0  0
    4.1378   -0.7012   -1.0091 C   0  0  0  0  0  0  0  0  0  0  0  0
    5.3132   -1.2517   -1.8406 C   0  0  0  0  0  0  0  0  0  0  0  0
    6.6935   -0.9174   -1.2427 C   0  0  0  0  0  0  0  0  0  0  0  0
    7.0409    0.5792   -1.0940 C   0  0  0  0  0  0  0  0  0  0  0  0
    8.4601    0.7126   -0.5281 C   0  0  0  0  0  0  0  0  0  0  0  0
    6.9636    1.3380   -2.4273 C   0  0  0  0  0  0  0  0  0  0  0  0
   -8.2921    1.0522    0.7780 O   0  0  0  0  0  0  0  0  0  0  0  0
  1  2  1  0  0  0  0
  1 10  1  0  0  0  0
  2  3  1  0  0  0  0
  3  4  1  0  0  0  0
  3 28  1  0  0  0  0
  4  5  1  0  0  0  0
  5  6  2  0  0  0  0
  5 10  1  0  0  0  0
  6  7  1  0  0  0  0
  7  8  1  0  0  0  0
  8  9  1  0  0  0  0
  8 14  1  0  0  0  0
  9 10  1  0  0  0  0
  9 11  1  0  0  0  0
 10 19  1  0  0  0  0
 11 12  1  0  0  0  0
 12 13  1  0  0  0  0
 13 14  1  0  0  0  0
 13 17  1  0  0  0  0
 13 18  1  0  0  0  0
 14 15  1  0  0  0  0
 15 16  1  0  0  0  0
 16 17  1  0  0  0  0
 17 20  1  0  0  0  0
 20 21  1  0  0  0  0
 20 22  1  0  0  0  0
 22 23  1  0  0  0  0
 23 24  1  0  0  0  0
 24 25  1  0  0  0  0
 25 26  1  0  0  0  0
 25 27  1  0  0  0  0
M  END
$$$$
CLR_2rh1_C_413
  PyMOL2.2          3D                             0

 28 31  0  0  1  0  0  0  0  0999 V2000
   -5.0691   -0.7408    0.1044 C   0  0  0  0  0  0  0  0  0  0  0  0
   -6.5940   -0.5570   -0.0027 C   0  0  0  0  0  0  0  0  0  0  0  0
   -6.9732    0.8651    0.4018 C   0  0  3  0  0  0  0  0  0  0  0  0
   -6.2298    1.9027   -0.4465 C   0  0  0  0  0  0  0  0  0  0  0  0
   -4.7222    1.6973   -0.4299 C   0  0  0  0  0  0  0  0  0  0  0  0
   -3.9079    2.7422   -0.2101 C   0  0  0  0  0  0  0  0  0  0  0  0
   -2.4007    2.6415   -0.1704 C   0  0  0  0  0  0  0  0  0  0  0  0
   -1.8478    1.3328   -0.7622 C   0  0  3  0  0  0  0  0  0  0  0  0
   -2.7050    0.1353   -0.2825 C   0  0  3  0  0  0  0  0  0  0  0  0
   -4.2142    0.2736   -0.7113 C   0  0  3  0  0  0  0  0  0  0  0  0
   -2.0572   -1.2329   -0.6343 C   0  0  0  0  0  0  0  0  0  0  0  0
   -0.5598   -1.3217   -0.2774 C   0  0  0  0  0  0  0  0  0  0  0  0
    0.2667   -0.1719   -0.8992 C   0  0  3  0  0  0  0  0  0  0  0  0
   -0.3752    1.1200   -0.3543 C   0  0  3  0  0  0  0  0  0  0  0  0
    0.6164    2.2192   -0.7263 C   0  0  0  0  0  0  0  0  0  0  0  0
    1.9737    1.5236   -0.5704 C   0  0  0  0  0  0  0  0  0  0  0  0
    1.7127    0.0111   -0.3534 C   0  0  3  0  0  0  0  0  0  0  0  0
    0.2702   -0.2771   -2.4487 C   0  0  0  0  0  0  0  0  0  0  0  0
   -4.4005    0.0002   -2.2247 C   0  0  0  0  0  0  0  0  0  0  0  0
    2.8869   -0.8602   -0.8987 C   0  0  3  0  0  0  0  0  0  0  0  0
    2.6188   -2.3683   -0.7353 C   0  0  0  0  0  0  0  0  0  0  0  0
    4.2083   -0.4798   -0.1775 C   0  0  0  0  0  0  0  0  0  0  0  0
    5.4945   -1.2180   -0.6015 C   0  0  0  0  0  0  0  0  0  0  0  0
    5.7936   -1.0938   -2.1084 C   0  0  0  0  0  0  0  0  0  0  0  0
    7.1232   -1.7154   -2.5834 C   0  0  0  0  0  0  0  0  0  0  0  0
    8.3473   -1.0307   -1.9601 C   0  0  0  0  0  0  0  0  0  0  0  0
    7.1869   -3.2254   -2.3159 C   0  0  0  0  0  0  0  0  0  0  0  0
   -8.3681    1.0138    0.2462 O   0  0  0  0  0  0  0  0  0  0  0  0
  1  2  1  0  0  0  0
  1 10  1  0  0  0  0
  2  3  1  0  0  0  0
  3  4  1  0  0  0  0
  3 28  1  0  0  0  0
  4  5  1  0  0  0  0
  5  6  2  0  0  0  0
  5 10  1  0  0  0  0
  6  7  1  0  0  0  0
  7  8  1  0  0  0  0
  8  9  1  0  0  0  0
  8 14  1  0  0  0  0
  9 10  1  0  0  0  0
  9 11  1  0  0  0  0
 10 19  1  0  0  0  0
 11 12  1  0  0  0  0
 12 13  1  0  0  0  0
 13 14  1  0  0  0  0
 13 17  1  0  0  0  0
 13 18  1  0  0  0  0
 14 15  1  0  0  0  0
 15 16  1  0  0  0  0
 16 17  1  0  0  0  0
 17 20  1  0  0  0  0
 20 21  1  0  0  0  0
 20 22  1  0  0  0  0
 22 23  1  0  0  0  0
 23 24  1  0  0  0  0
 24 25  1  0  0  0  0
 25 26  1  0  0  0  0
 25 27  1  0  0  0  0
M  END
$$$$
CLR_2rh1_C_413
  PyMOL2.2          3D                             0

 28 31  0  0  1  0  0  0  0  0999 V2000
   -5.0487   -0.7688    0.1987 C   0  0  0  0  0  0  0  0  0  0  0  0
   -6.5724   -0.5598    0.2637 C   0  0  0  0  0  0  0  0  0  0  0  0
   -6.8810    0.8407    0.7869 C   0  0  3  0  0  0  0  0  0  0  0  0
   -6.2126    1.9165   -0.0754 C   0  0  0  0  0  0  0  0  0  0  0  0
   -4.7157    1.6932   -0.2307 C   0  0  0  0  0  0  0  0  0  0  0  0
   -3.8647    2.7146   -0.0389 C   0  0  0  0  0  0  0  0  0  0  0  0
   -2.3633    2.5956   -0.1658 C   0  0  0  0  0  0  0  0  0  0  0  0
   -1.9005    1.3177   -0.8858 C   0  0  3  0  0  0  0  0  0  0  0  0
   -2.7214    0.1001   -0.3845 C   0  0  3  0  0  0  0  0  0  0  0  0
   -4.2651    0.2818   -0.6434 C   0  0  3  0  0  0  0  0  0  0  0  0
   -2.1443   -1.2644   -0.8638 C   0  0  0  0  0  0  0  0  0  0  0  0
   -0.6154   -1.3926   -0.6987 C   0  0  0  0  0  0  0  0  0  0  0  0
    0.1373   -0.2038   -1.3307 C   0  0  3  0  0  0  0  0  0  0  0  0
   -0.3989    1.0661   -0.6447 C   0  0  3  0  0  0  0  0  0  0  0  0
    0.6021    2.1543   -1.0447 C   0  0  0  0  0  0  0  0  0  0  0  0
    1.9481    1.4111   -1.1244 C   0  0  0  0  0  0  0  0  0  0  0  0
    1.6255   -0.0864   -0.9137 C   0  0  3  0  0  0  0  0  0  0  0  0
   -0.0509   -0.2231   -2.8704 C   0  0  0  0  0  0  0  0  0  0  0  0
   -4.6129    0.1005   -2.1413 C   0  0  0  0  0  0  0  0  0  0  0  0
    2.6441   -1.1214   -1.4802 C   0  0  3  0  0  0  0  0  0  0  0  0
    3.7749   -1.3131   -0.4492 C   0  0  0  0  0  0  0  0  0  0  0  0
    3.2723   -0.7748   -2.8520 C   0  0  0  0  0  0  0  0  0  0  0  0
    3.9364   -1.9776   -3.5438 C   0  0  0  0  0  0  0  0  0  0  0  0
    4.4318   -1.5845   -4.9454 C   0  0  0  0  0  0  0  0  0  0  0  0
    5.2196   -2.7027   -5.6528 C   0  0  0  0  0  0  0  0  0  0  0  0
    4.3557   -3.9392   -5.9453 C   0  0  0  0  0  0  0  0  0  0  0  0
    5.7780   -2.1662   -6.9774 C   0  0  0  0  0  0  0  0  0  0  0  0
   -8.2825    1.0140    0.7887 O   0  0  0  0  0  0  0  0  0  0  0  0
  1  2  1  0  0  0  0
  1 10  1  0  0  0  0
  2  3  1  0  0  0  0
  3  4  1  0  0  0  0
  3 28  1  0  0  0  0
  4  5  1  0  0  0  0
  5  6  2  0  0  0  0
  5 10  1  0  0  0  0
  6  7  1  0  0  0  0
  7  8  1  0  0  0  0
  8  9  1  0  0  0  0
  8 14  1  0  0  0  0
  9 10  1  0  0  0  0
  9 11  1  0  0  0  0
 10 19  1  0  0  0  0
 11 12  1  0  0  0  0
 12 13  1  0  0  0  0
 13 14  1  0  0  0  0
 13 17  1  0  0  0  0
 13 18  1  0  0  0  0
 14 15  1  0  0  0  0
 15 16  1  0  0  0  0
 16 17  1  0  0  0  0
 17 20  1  0  0  0  0
 20 21  1  0  0  0  0
 20 22  1  0  0  0  0
 22 23  1  0  0  0  0
 23 24  1  0  0  0  0
 24 25  1  0  0  0  0
 25 26  1  0  0  0  0
 25 27  1  0  0  0  0
M  END
$$$$
CLR_2rh1_C_413
  PyMOL2.2          3D                             0

 28 31  0  0  1  0  0  0  0  0999 V2000
   -5.0646   -0.7598    0.2045 C   0  0  0  0  0  0  0  0  0  0  0  0
   -6.5875   -0.5422    0.2670 C   0  0  0  0  0  0  0  0  0  0  0  0
   -6.8881    0.8625    0.7850 C   0  0  3  0  0  0  0  0  0  0  0  0
   -6.2121    1.9315   -0.0800 C   0  0  0  0  0  0  0  0  0  0  0  0
   -4.7172    1.6978   -0.2322 C   0  0  0  0  0  0  0  0  0  0  0  0
   -3.8589    2.7147   -0.0436 C   0  0  0  0  0  0  0  0  0  0  0  0
   -2.3589    2.5845   -0.1675 C   0  0  0  0  0  0  0  0  0  0  0  0
   -1.9023    1.3011   -0.8826 C   0  0  3  0  0  0  0  0  0  0  0  0
   -2.7320    0.0931   -0.3802 C   0  0  3  0  0  0  0  0  0  0  0  0
   -4.2743    0.2835   -0.6414 C   0  0  3  0  0  0  0  0  0  0  0  0
   -2.1586   -1.2661   -0.8705 C   0  0  0  0  0  0  0  0  0  0  0  0
   -0.6357   -1.4045   -0.6771 C   0  0  0  0  0  0  0  0  0  0  0  0
    0.1468   -0.2336   -1.3117 C   0  0  3  0  0  0  0  0  0  0  0  0
   -0.4006    1.0404   -0.6396 C   0  0  3  0  0  0  0  0  0  0  0  0
    0.5806    2.1348   -1.0562 C   0  0  0  0  0  0  0  0  0  0  0  0
    1.9272    1.4007   -1.0974 C   0  0  0  0  0  0  0  0  0  0  0  0
    1.6385   -0.1075   -0.8955 C   0  0  3  0  0  0  0  0  0  0  0  0
   -0.0071   -0.2558   -2.8564 C   0  0  0  0  0  0  0  0  0  0  0  0
   -4.6221    0.0986   -2.1391 C   0  0  0  0  0  0  0  0  0  0  0  0
    2.7164   -1.0021   -1.5735 C   0  0  3  0  0  0  0  0  0  0  0  0
    2.4180   -2.5088   -1.4661 C   0  0  0  0  0  0  0  0  0  0  0  0
    4.1599   -0.6916   -1.0926 C   0  0  0  0  0  0  0  0  0  0  0  0
    4.4574   -0.5908    0.4199 C   0  0  0  0  0  0  0  0  0  0  0  0
    4.1956   -1.8734    1.2258 C   0  0  0  0  0  0  0  0  0  0  0  0
    4.8141   -1.8414    2.6363 C   0  0  0  0  0  0  0  0  0  0  0  0
    4.2052   -0.7385    3.5158 C   0  0  0  0  0  0  0  0  0  0  0  0
    4.5900   -3.1987    3.3157 C   0  0  0  0  0  0  0  0  0  0  0  0
   -8.2886    1.0444    0.7849 O   0  0  0  0  0  0  0  0  0  0  0  0
  1  2  1  0  0  0  0
  1 10  1  0  0  0  0
  2  3  1  0  0  0  0
  3  4  1  0  0  0  0
  3 28  1  0  0  0  0
  4  5  1  0  0  0  0
  5  6  2  0  0  0  0
  5 10  1  0  0  0  0
  6  7  1  0  0  0  0
  7  8  1  0  0  0  0
  8  9  1  0  0  0  0
  8 14  1  0  0  0  0
  9 10  1  0  0  0  0
  9 11  1  0  0  0  0
 10 19  1  0  0  0  0
 11 12  1  0  0  0  0
 12 13  1  0  0  0  0
 13 14  1  0  0  0  0
 13 17  1  0  0  0  0
 13 18  1  0  0  0  0
 14 15  1  0  0  0  0
 15 16  1  0  0  0  0
 16 17  1  0  0  0  0
 17 20  1  0  0  0  0
 20 21  1  0  0  0  0
 20 22  1  0  0  0  0
 22 23  1  0  0  0  0
 23 24  1  0  0  0  0
 24 25  1  0  0  0  0
 25 26  1  0  0  0  0
 25 27  1  0  0  0  0
M  END
$$$$
CLR_2rh1_C_413
  PyMOL2.2          3D                             0

 28 31  0  0  1  0  0  0  0  0999 V2000
   -5.0484   -0.7682    0.1984 C   0  0  0  0  0  0  0  0  0  0  0  0
   -6.5725   -0.5607    0.2640 C   0  0  0  0  0  0  0  0  0  0  0  0
   -6.8815    0.8402    0.7879 C   0  0  3  0  0  0  0  0  0  0  0  0
   -6.2127    1.9169   -0.0742 C   0  0  0  0  0  0  0  0  0  0  0  0
   -4.7158    1.6931   -0.2301 C   0  0  0  0  0  0  0  0  0  0  0  0
   -3.8641    2.7148   -0.0395 C   0  0  0  0  0  0  0  0  0  0  0  0
   -2.3637    2.5955   -0.1668 C   0  0  0  0  0  0  0  0  0  0  0  0
   -1.9007    1.3176   -0.8869 C   0  0  3  0  0  0  0  0  0  0  0  0
   -2.7214    0.1005   -0.3850 C   0  0  3  0  0  0  0  0  0  0  0  0
   -4.2648    0.2818   -0.6436 C   0  0  3  0  0  0  0  0  0  0  0  0
   -2.1440   -1.2645   -0.8645 C   0  0  0  0  0  0  0  0  0  0  0  0
   -0.6152   -1.3919   -0.6989 C   0  0  0  0  0  0  0  0  0  0  0  0
    0.1371   -0.2034   -1.3314 C   0  0  3  0  0  0  0  0  0  0  0  0
   -0.3989    1.0659   -0.6448 C   0  0  3  0  0  0  0  0  0  0  0  0
    0.6025    2.1542   -1.0448 C   0  0  0  0  0  0  0  0  0  0  0  0
    1.9478    1.4111   -1.1232 C   0  0  0  0  0  0  0  0  0  0  0  0
    1.6257   -0.0870   -0.9137 C   0  0  3  0  0  0  0  0  0  0  0  0
   -0.0508   -0.2239   -2.8701 C   0  0  0  0  0  0  0  0  0  0  0  0
   -4.6135    0.1009   -2.1417 C   0  0  0  0  0  0  0  0  0  0  0  0
    2.6443   -1.1213   -1.4791 C   0  0  3  0  0  0  0  0  0  0  0  0
    3.7750   -1.3111   -0.4475 C   0  0  0  0  0  0  0  0  0  0  0  0
    3.2732   -0.7747   -2.8517 C   0  0  0  0  0  0  0  0  0  0  0  0
    3.9283   -1.9801   -3.5475 C   0  0  0  0  0  0  0  0  0  0  0  0
    4.4438   -1.5820   -4.9411 C   0  0  0  0  0  0  0  0  0  0  0  0
    5.0064   -2.7678   -5.7484 C   0  0  0  0  0  0  0  0  0  0  0  0
    5.3615   -2.2905   -7.1625 C   0  0  0  0  0  0  0  0  0  0  0  0
    6.2589   -3.3801   -5.1038 C   0  0  0  0  0  0  0  0  0  0  0  0
   -8.2814    1.0143    0.7898 O   0  0  0  0  0  0  0  0  0  0  0  0
  1  2  1  0  0  0  0
  1 10  1  0  0  0  0
  2  3  1  0  0  0  0
  3  4  1  0  0  0  0
  3 28  1  0  0  0  0
  4  5  1  0  0  0  0
  5  6  2  0  0  0  0
  5 10  1  0  0  0  0
  6  7  1  0  0  0  0
  7  8  1  0  0  0  0
  8  9  1  0  0  0  0
  8 14  1  0  0  0  0
  9 10  1  0  0  0  0
  9 11  1  0  0  0  0
 10 19  1  0  0  0  0
 11 12  1  0  0  0  0
 12 13  1  0  0  0  0
 13 14  1  0  0  0  0
 13 17  1  0  0  0  0
 13 18  1  0  0  0  0
 14 15  1  0  0  0  0
 15 16  1  0  0  0  0
 16 17  1  0  0  0  0
 17 20  1  0  0  0  0
 20 21  1  0  0  0  0
 20 22  1  0  0  0  0
 22 23  1  0  0  0  0
 23 24  1  0  0  0  0
 24 25  1  0  0  0  0
 25 26  1  0  0  0  0
 25 27  1  0  0  0  0
M  END
$$$$
CLR_2rh1_C_413
  PyMOL2.2          3D                             0

 28 31  0  0  1  0  0  0  0  0999 V2000
   -5.0803   -0.7714    0.1807 C   0  0  0  0  0  0  0  0  0  0  0  0
   -6.6035   -0.5574    0.2324 C   0  0  0  0  0  0  0  0  0  0  0  0
   -6.9118    0.8458    0.7483 C   0  0  3  0  0  0  0  0  0  0  0  0
   -6.2317    1.9171   -0.1114 C   0  0  0  0  0  0  0  0  0  0  0  0
   -4.7343    1.6870   -0.2521 C   0  0  0  0  0  0  0  0  0  0  0  0
   -3.8792    2.7043   -0.0566 C   0  0  0  0  0  0  0  0  0  0  0  0
   -2.3788    2.5782   -0.1694 C   0  0  0  0  0  0  0  0  0  0  0  0
   -1.9133    1.2958   -0.8822 C   0  0  3  0  0  0  0  0  0  0  0  0
   -2.7454    0.0859   -0.3860 C   0  0  3  0  0  0  0  0  0  0  0  0
   -4.2858    0.2732   -0.6589 C   0  0  3  0  0  0  0  0  0  0  0  0
   -2.1652   -1.2722   -0.8709 C   0  0  0  0  0  0  0  0  0  0  0  0
   -0.6426   -1.4058   -0.6713 C   0  0  0  0  0  0  0  0  0  0  0  0
    0.1398   -0.2330   -1.3043 C   0  0  3  0  0  0  0  0  0  0  0  0
   -0.4137    1.0374   -0.6309 C   0  0  3  0  0  0  0  0  0  0  0  0
    0.5676    2.1364   -1.0361 C   0  0  0  0  0  0  0  0  0  0  0  0
    1.9167    1.4058   -1.0671 C   0  0  0  0  0  0  0  0  0  0  0  0
    1.6324   -0.1046   -0.8896 C   0  0  3  0  0  0  0  0  0  0  0  0
   -0.0090   -0.2566   -2.8496 C   0  0  0  0  0  0  0  0  0  0  0  0
   -4.6223    0.0880   -2.1586 C   0  0  0  0  0  0  0  0  0  0  0  0
    2.7148   -0.9827   -1.5849 C   0  0  3  0  0  0  0  0  0  0  0  0
    2.4587   -2.4913   -1.4179 C   0  0  0  0  0  0  0  0  0  0  0  0
    4.1567   -0.6623   -1.1172 C   0  0  0  0  0  0  0  0  0  0  0  0
    4.4270   -0.8498    0.3912 C   0  0  0  0  0  0  0  0  0  0  0  0
    5.9047   -0.6169    0.7610 C   0  0  0  0  0  0  0  0  0  0  0  0
    6.7471   -1.9029    0.9009 C   0  0  0  0  0  0  0  0  0  0  0  0
    6.8381   -2.7184   -0.3953 C   0  0  0  0  0  0  0  0  0  0  0  0
    8.1654   -1.5265    1.3475 C   0  0  0  0  0  0  0  0  0  0  0  0
   -8.3118    1.0257    0.7376 O   0  0  0  0  0  0  0  0  0  0  0  0
  1  2  1  0  0  0  0
  1 10  1  0  0  0  0
  2  3  1  0  0  0  0
  3  4  1  0  0  0  0
  3 28  1  0  0  0  0
  4  5  1  0  0  0  0
  5  6  2  0  0  0  0
  5 10  1  0  0  0  0
  6  7  1  0  0  0  0
  7  8  1  0  0  0  0
  8  9  1  0  0  0  0
  8 14  1  0  0  0  0
  9 10  1  0  0  0  0
  9 11  1  0  0  0  0
 10 19  1  0  0  0  0
 11 12  1  0  0  0  0
 12 13  1  0  0  0  0
 13 14  1  0  0  0  0
 13 17  1  0  0  0  0
 13 18  1  0  0  0  0
 14 15  1  0  0  0  0
 15 16  1  0  0  0  0
 16 17  1  0  0  0  0
 17 20  1  0  0  0  0
 20 21  1  0  0  0  0
 20 22  1  0  0  0  0
 22 23  1  0  0  0  0
 23 24  1  0  0  0  0
 24 25  1  0  0  0  0
 25 26  1  0  0  0  0
 25 27  1  0  0  0  0
M  END
$$$$
CLR_2rh1_C_413
  PyMOL2.2          3D                             0

 28 31  0  0  1  0  0  0  0  0999 V2000
   -5.0653   -0.7550    0.2106 C   0  0  0  0  0  0  0  0  0  0  0  0
   -6.5894   -0.5442    0.2608 C   0  0  0  0  0  0  0  0  0  0  0  0
   -6.8977    0.8628    0.7705 C   0  0  3  0  0  0  0  0  0  0  0  0
   -6.2116    1.9380   -0.0810 C   0  0  0  0  0  0  0  0  0  0  0  0
   -4.7164    1.6986   -0.2333 C   0  0  0  0  0  0  0  0  0  0  0  0
   -3.8577    2.7150   -0.0466 C   0  0  0  0  0  0  0  0  0  0  0  0
   -2.3579    2.5844   -0.1690 C   0  0  0  0  0  0  0  0  0  0  0  0
   -1.9005    1.2995   -0.8798 C   0  0  3  0  0  0  0  0  0  0  0  0
   -2.7316    0.0932   -0.3748 C   0  0  3  0  0  0  0  0  0  0  0  0
   -4.2746    0.2836   -0.6381 C   0  0  3  0  0  0  0  0  0  0  0  0
   -2.1585   -1.2676   -0.8612 C   0  0  0  0  0  0  0  0  0  0  0  0
   -0.6349   -1.4042   -0.6681 C   0  0  0  0  0  0  0  0  0  0  0  0
    0.1469   -0.2360   -1.3093 C   0  0  3  0  0  0  0  0  0  0  0  0
   -0.3999    1.0386   -0.6363 C   0  0  3  0  0  0  0  0  0  0  0  0
    0.5808    2.1330   -1.0525 C   0  0  0  0  0  0  0  0  0  0  0  0
    1.9278    1.4007   -1.0793 C   0  0  0  0  0  0  0  0  0  0  0  0
    1.6424   -0.1097   -0.9043 C   0  0  3  0  0  0  0  0  0  0  0  0
   -0.0111   -0.2631   -2.8540 C   0  0  0  0  0  0  0  0  0  0  0  0
   -4.6206    0.0935   -2.1350 C   0  0  0  0  0  0  0  0  0  0  0  0
    2.7190   -0.9894   -1.6073 C   0  0  3  0  0  0  0  0  0  0  0  0
    2.4605   -2.4968   -1.4314 C   0  0  0  0  0  0  0  0  0  0  0  0
    4.1670   -0.6680   -1.1593 C   0  0  0  0  0  0  0  0  0  0  0  0
    4.4608   -0.8533    0.3438 C   0  0  0  0  0  0  0  0  0  0  0  0
    5.9399   -0.6141    0.7035 C   0  0  0  0  0  0  0  0  0  0  0  0
    6.2728    0.7970    1.2305 C   0  0  0  0  0  0  0  0  0  0  0  0
    7.7507    0.8388    1.6446 C   0  0  0  0  0  0  0  0  0  0  0  0
    6.0206    1.9094    0.2039 C   0  0  0  0  0  0  0  0  0  0  0  0
   -8.2966    1.0489    0.7590 O   0  0  0  0  0  0  0  0  0  0  0  0
  1  2  1  0  0  0  0
  1 10  1  0  0  0  0
  2  3  1  0  0  0  0
  3  4  1  0  0  0  0
  3 28  1  0  0  0  0
  4  5  1  0  0  0  0
  5  6  2  0  0  0  0
  5 10  1  0  0  0  0
  6  7  1  0  0  0  0
  7  8  1  0  0  0  0
  8  9  1  0  0  0  0
  8 14  1  0  0  0  0
  9 10  1  0  0  0  0
  9 11  1  0  0  0  0
 10 19  1  0  0  0  0
 11 12  1  0  0  0  0
 12 13  1  0  0  0  0
 13 14  1  0  0  0  0
 13 17  1  0  0  0  0
 13 18  1  0  0  0  0
 14 15  1  0  0  0  0
 15 16  1  0  0  0  0
 16 17  1  0  0  0  0
 17 20  1  0  0  0  0
 20 21  1  0  0  0  0
 20 22  1  0  0  0  0
 22 23  1  0  0  0  0
 23 24  1  0  0  0  0
 24 25  1  0  0  0  0
 25 26  1  0  0  0  0
 25 27  1  0  0  0  0
M  END
$$$$
CLR_2rh1_C_413
  PyMOL2.2          3D                             0

 28 31  0  0  1  0  0  0  0  0999 V2000
   -5.0766   -0.7282    0.2265 C   0  0  0  0  0  0  0  0  0  0  0  0
   -6.5946   -0.4853    0.3211 C   0  0  0  0  0  0  0  0  0  0  0  0
   -6.8608    0.9092    0.8853 C   0  0  3  0  0  0  0  0  0  0  0  0
   -6.1793    1.9904    0.0396 C   0  0  0  0  0  0  0  0  0  0  0  0
   -4.6910    1.7345   -0.1446 C   0  0  0  0  0  0  0  0  0  0  0  0
   -3.8108    2.7292    0.0598 C   0  0  0  0  0  0  0  0  0  0  0  0
   -2.3157    2.5750   -0.0946 C   0  0  0  0  0  0  0  0  0  0  0  0
   -1.8952    1.3050   -0.8547 C   0  0  3  0  0  0  0  0  0  0  0  0
   -2.7397    0.1001   -0.3726 C   0  0  3  0  0  0  0  0  0  0  0  0
   -4.2818    0.3251   -0.6024 C   0  0  3  0  0  0  0  0  0  0  0  0
   -2.1982   -1.2528   -0.9118 C   0  0  0  0  0  0  0  0  0  0  0  0
   -0.6738   -1.4215   -0.7523 C   0  0  0  0  0  0  0  0  0  0  0  0
    0.1223   -0.2500   -1.3743 C   0  0  3  0  0  0  0  0  0  0  0  0
   -0.3949    1.0087   -0.6482 C   0  0  3  0  0  0  0  0  0  0  0  0
    0.5908    2.1052   -1.0420 C   0  0  0  0  0  0  0  0  0  0  0  0
    1.9232    1.3532   -1.1469 C   0  0  0  0  0  0  0  0  0  0  0  0
    1.6307   -0.1580   -0.9969 C   0  0  3  0  0  0  0  0  0  0  0  0
   -0.0649   -0.2207   -2.9149 C   0  0  0  0  0  0  0  0  0  0  0  0
   -4.6588    0.1897   -2.0979 C   0  0  0  0  0  0  0  0  0  0  0  0
    2.6921   -1.0422   -1.7245 C   0  0  3  0  0  0  0  0  0  0  0  0
    2.3480   -2.5413   -1.6423 C   0  0  0  0  0  0  0  0  0  0  0  0
    4.1181   -0.8688   -1.1324 C   0  0  0  0  0  0  0  0  0  0  0  0
    4.9674    0.2231   -1.8086 C   0  0  0  0  0  0  0  0  0  0  0  0
    6.4013    0.2080   -1.2531 C   0  0  0  0  0  0  0  0  0  0  0  0
    7.2760    1.3604   -1.7850 C   0  0  0  0  0  0  0  0  0  0  0  0
    8.6361    1.3294   -1.0763 C   0  0  0  0  0  0  0  0  0  0  0  0
    7.5049    1.2750   -3.3007 C   0  0  0  0  0  0  0  0  0  0  0  0
   -8.2562    1.1157    0.9137 O   0  0  0  0  0  0  0  0  0  0  0  0
  1  2  1  0  0  0  0
  1 10  1  0  0  0  0
  2  3  1  0  0  0  0
  3  4  1  0  0  0  0
  3 28  1  0  0  0  0
  4  5  1  0  0  0  0
  5  6  2  0  0  0  0
  5 10  1  0  0  0  0
  6  7  1  0  0  0  0
  7  8  1  0  0  0  0
  8  9  1  0  0  0  0
  8 14  1  0  0  0  0
  9 10  1  0  0  0  0
  9 11  1  0  0  0  0
 10 19  1  0  0  0  0
 11 12  1  0  0  0  0
 12 13  1  0  0  0  0
 13 14  1  0  0  0  0
 13 17  1  0  0  0  0
 13 18  1  0  0  0  0
 14 15  1  0  0  0  0
 15 16  1  0  0  0  0
 16 17  1  0  0  0  0
 17 20  1  0  0  0  0
 20 21  1  0  0  0  0
 20 22  1  0  0  0  0
 22 23  1  0  0  0  0
 23 24  1  0  0  0  0
 24 25  1  0  0  0  0
 25 26  1  0  0  0  0
 25 27  1  0  0  0  0
M  END
$$$$
CLR_2rh1_C_413
  PyMOL2.2          3D                             0

 28 31  0  0  1  0  0  0  0  0999 V2000
   -5.0917   -0.7464    0.1977 C   0  0  0  0  0  0  0  0  0  0  0  0
   -6.6127   -0.5147    0.2561 C   0  0  0  0  0  0  0  0  0  0  0  0
   -6.9010    0.8930    0.7766 C   0  0  3  0  0  0  0  0  0  0  0  0
   -6.2114    1.9571   -0.0836 C   0  0  0  0  0  0  0  0  0  0  0  0
   -4.7177    1.7085   -0.2312 C   0  0  0  0  0  0  0  0  0  0  0  0
   -3.8502    2.7153   -0.0365 C   0  0  0  0  0  0  0  0  0  0  0  0
   -2.3505    2.5701   -0.1548 C   0  0  0  0  0  0  0  0  0  0  0  0
   -1.9046    1.2841   -0.8734 C   0  0  3  0  0  0  0  0  0  0  0  0
   -2.7487    0.0846   -0.3760 C   0  0  3  0  0  0  0  0  0  0  0  0
   -4.2884    0.2907   -0.6420 C   0  0  3  0  0  0  0  0  0  0  0  0
   -2.1858   -1.2779   -0.8684 C   0  0  0  0  0  0  0  0  0  0  0  0
   -0.6639   -1.4293   -0.6738 C   0  0  0  0  0  0  0  0  0  0  0  0
    0.1348   -0.2676   -1.3103 C   0  0  3  0  0  0  0  0  0  0  0  0
   -0.4067    1.0061   -0.6286 C   0  0  3  0  0  0  0  0  0  0  0  0
    0.5791    2.1002   -1.0276 C   0  0  0  0  0  0  0  0  0  0  0  0
    1.9173    1.3564   -1.0947 C   0  0  0  0  0  0  0  0  0  0  0  0
    1.6336   -0.1517   -0.9049 C   0  0  3  0  0  0  0  0  0  0  0  0
   -0.0211   -0.2796   -2.8553 C   0  0  0  0  0  0  0  0  0  0  0  0
   -4.6334    0.1130   -2.1414 C   0  0  0  0  0  0  0  0  0  0  0  0
    2.7183   -1.0470   -1.5840 C   0  0  3  0  0  0  0  0  0  0  0  0
    2.3853   -2.5457   -1.4681 C   0  0  0  0  0  0  0  0  0  0  0  0
    4.1272   -0.8394   -0.9630 C   0  0  0  0  0  0  0  0  0  0  0  0
    4.9947    0.2074   -1.6863 C   0  0  0  0  0  0  0  0  0  0  0  0
    6.3976    0.2709   -1.0604 C   0  0  0  0  0  0  0  0  0  0  0  0
    7.3584    1.2180   -1.8049 C   0  0  0  0  0  0  0  0  0  0  0  0
    6.9099    2.6858   -1.7412 C   0  0  0  0  0  0  0  0  0  0  0  0
    8.7582    1.1025   -1.1877 C   0  0  0  0  0  0  0  0  0  0  0  0
   -8.2991    1.0888    0.7710 O   0  0  0  0  0  0  0  0  0  0  0  0
  1  2  1  0  0  0  0
  1 10  1  0  0  0  0
  2  3  1  0  0  0  0
  3  4  1  0  0  0  0
  3 28  1  0  0  0  0
  4  5  1  0  0  0  0
  5  6  2  0  0  0  0
  5 10  1  0  0  0  0
  6  7  1  0  0  0  0
  7  8  1  0  0  0  0
  8  9  1  0  0  0  0
  8 14  1  0  0  0  0
  9 10  1  0  0  0  0
  9 11  1  0  0  0  0
 10 19  1  0  0  0  0
 11 12  1  0  0  0  0
 12 13  1  0  0  0  0
 13 14  1  0  0  0  0
 13 17  1  0  0  0  0
 13 18  1  0  0  0  0
 14 15  1  0  0  0  0
 15 16  1  0  0  0  0
 16 17  1  0  0  0  0
 17 20  1  0  0  0  0
 20 21  1  0  0  0  0
 20 22  1  0  0  0  0
 22 23  1  0  0  0  0
 23 24  1  0  0  0  0
 24 25  1  0  0  0  0
 25 26  1  0  0  0  0
 25 27  1  0  0  0  0
M  END
$$$$
CLR_2rh1_C_413
  PyMOL2.2          3D                             0

 28 31  0  0  1  0  0  0  0  0999 V2000
   -5.0659   -0.7584    0.2055 C   0  0  0  0  0  0  0  0  0  0  0  0
   -6.5892   -0.5407    0.2668 C   0  0  0  0  0  0  0  0  0  0  0  0
   -6.8895    0.8649    0.7828 C   0  0  3  0  0  0  0  0  0  0  0  0
   -6.2132    1.9328   -0.0839 C   0  0  0  0  0  0  0  0  0  0  0  0
   -4.7172    1.6988   -0.2346 C   0  0  0  0  0  0  0  0  0  0  0  0
   -3.8590    2.7149   -0.0452 C   0  0  0  0  0  0  0  0  0  0  0  0
   -2.3587    2.5844   -0.1680 C   0  0  0  0  0  0  0  0  0  0  0  0
   -1.9017    1.3000   -0.8814 C   0  0  3  0  0  0  0  0  0  0  0  0
   -2.7331    0.0932   -0.3782 C   0  0  3  0  0  0  0  0  0  0  0  0
   -4.2741    0.2829   -0.6408 C   0  0  3  0  0  0  0  0  0  0  0  0
   -2.1585   -1.2671   -0.8651 C   0  0  0  0  0  0  0  0  0  0  0  0
   -0.6356   -1.4037   -0.6707 C   0  0  0  0  0  0  0  0  0  0  0  0
    0.1477   -0.2346   -1.3114 C   0  0  3  0  0  0  0  0  0  0  0  0
   -0.4013    1.0390   -0.6387 C   0  0  3  0  0  0  0  0  0  0  0  0
    0.5788    2.1334   -1.0536 C   0  0  0  0  0  0  0  0  0  0  0  0
    1.9267    1.4010   -1.0819 C   0  0  0  0  0  0  0  0  0  0  0  0
    1.6422   -0.1102   -0.9007 C   0  0  3  0  0  0  0  0  0  0  0  0
   -0.0096   -0.2597   -2.8559 C   0  0  0  0  0  0  0  0  0  0  0  0
   -4.6213    0.0957   -2.1385 C   0  0  0  0  0  0  0  0  0  0  0  0
    2.7219   -0.9950   -1.5944 C   0  0  3  0  0  0  0  0  0  0  0  0
    2.4496   -2.5047   -1.4744 C   0  0  0  0  0  0  0  0  0  0  0  0
    4.1814   -0.7024   -1.1508 C   0  0  0  0  0  0  0  0  0  0  0  0
    4.7218   -1.3068    0.1641 C   0  0  0  0  0  0  0  0  0  0  0  0
    4.0036   -0.8454    1.4429 C   0  0  0  0  0  0  0  0  0  0  0  0
    4.7916   -1.1525    2.7292 C   0  0  0  0  0  0  0  0  0  0  0  0
    4.0409   -0.5669    3.9325 C   0  0  0  0  0  0  0  0  0  0  0  0
    4.9875   -2.6600    2.9501 C   0  0  0  0  0  0  0  0  0  0  0  0
   -8.2898    1.0474    0.7803 O   0  0  0  0  0  0  0  0  0  0  0  0
  1  2  1  0  0  0  0
  1 10  1  0  0  0  0
  2  3  1  0  0  0  0
  3  4  1  0  0  0  0
  3 28  1  0  0  0  0
  4  5  1  0  0  0  0
  5  6  2  0  0  0  0
  5 10  1  0  0  0  0
  6  7  1  0  0  0  0
  7  8  1  0  0  0  0
  8  9  1  0  0  0  0
  8 14  1  0  0  0  0
  9 10  1  0  0  0  0
  9 11  1  0  0  0  0
 10 19  1  0  0  0  0
 11 12  1  0  0  0  0
 12 13  1  0  0  0  0
 13 14  1  0  0  0  0
 13 17  1  0  0  0  0
 13 18  1  0  0  0  0
 14 15  1  0  0  0  0
 15 16  1  0  0  0  0
 16 17  1  0  0  0  0
 17 20  1  0  0  0  0
 20 21  1  0  0  0  0
 20 22  1  0  0  0  0
 22 23  1  0  0  0  0
 23 24  1  0  0  0  0
 24 25  1  0  0  0  0
 25 26  1  0  0  0  0
 25 27  1  0  0  0  0
M  END
$$$$
CLR_2rh1_C_413
  PyMOL2.2          3D                             0

 28 31  0  0  1  0  0  0  0  0999 V2000
   -5.0659   -0.7583    0.2038 C   0  0  0  0  0  0  0  0  0  0  0  0
   -6.5895   -0.5407    0.2655 C   0  0  0  0  0  0  0  0  0  0  0  0
   -6.8897    0.8639    0.7824 C   0  0  3  0  0  0  0  0  0  0  0  0
   -6.2119    1.9333   -0.0821 C   0  0  0  0  0  0  0  0  0  0  0  0
   -4.7166    1.6984   -0.2330 C   0  0  0  0  0  0  0  0  0  0  0  0
   -3.8580    2.7144   -0.0437 C   0  0  0  0  0  0  0  0  0  0  0  0
   -2.3585    2.5837   -0.1666 C   0  0  0  0  0  0  0  0  0  0  0  0
   -1.9018    1.2995   -0.8813 C   0  0  3  0  0  0  0  0  0  0  0  0
   -2.7332    0.0925   -0.3780 C   0  0  3  0  0  0  0  0  0  0  0  0
   -4.2738    0.2832   -0.6411 C   0  0  3  0  0  0  0  0  0  0  0  0
   -2.1597   -1.2675   -0.8661 C   0  0  0  0  0  0  0  0  0  0  0  0
   -0.6362   -1.4050   -0.6728 C   0  0  0  0  0  0  0  0  0  0  0  0
    0.1475   -0.2354   -1.3111 C   0  0  3  0  0  0  0  0  0  0  0  0
   -0.4008    1.0387   -0.6385 C   0  0  3  0  0  0  0  0  0  0  0  0
    0.5792    2.1340   -1.0534 C   0  0  0  0  0  0  0  0  0  0  0  0
    1.9264    1.4006   -1.0946 C   0  0  0  0  0  0  0  0  0  0  0  0
    1.6405   -0.1087   -0.8977 C   0  0  3  0  0  0  0  0  0  0  0  0
   -0.0082   -0.2599   -2.8558 C   0  0  0  0  0  0  0  0  0  0  0  0
   -4.6208    0.0975   -2.1384 C   0  0  0  0  0  0  0  0  0  0  0  0
    2.7203   -0.9926   -1.5855 C   0  0  3  0  0  0  0  0  0  0  0  0
    2.4387   -2.4991   -1.4446 C   0  0  0  0  0  0  0  0  0  0  0  0
    4.1723   -0.6986   -1.1228 C   0  0  0  0  0  0  0  0  0  0  0  0
    4.5621   -1.0258    0.3362 C   0  0  0  0  0  0  0  0  0  0  0  0
    4.3719    0.1439    1.3196 C   0  0  0  0  0  0  0  0  0  0  0  0
    4.9735   -0.1271    2.7123 C   0  0  0  0  0  0  0  0  0  0  0  0
    4.8601    1.1429    3.5659 C   0  0  0  0  0  0  0  0  0  0  0  0
    4.2660   -1.2789    3.4418 C   0  0  0  0  0  0  0  0  0  0  0  0
   -8.2894    1.0468    0.7810 O   0  0  0  0  0  0  0  0  0  0  0  0
  1  2  1  0  0  0  0
  1 10  1  0  0  0  0
  2  3  1  0  0  0  0
  3  4  1  0  0  0  0
  3 28  1  0  0  0  0
  4  5  1  0  0  0  0
  5  6  2  0  0  0  0
  5 10  1  0  0  0  0
  6  7  1  0  0  0  0
  7  8  1  0  0  0  0
  8  9  1  0  0  0  0
  8 14  1  0  0  0  0
  9 10  1  0  0  0  0
  9 11  1  0  0  0  0
 10 19  1  0  0  0  0
 11 12  1  0  0  0  0
 12 13  1  0  0  0  0
 13 14  1  0  0  0  0
 13 17  1  0  0  0  0
 13 18  1  0  0  0  0
 14 15  1  0  0  0  0
 15 16  1  0  0  0  0
 16 17  1  0  0  0  0
 17 20  1  0  0  0  0
 20 21  1  0  0  0  0
 20 22  1  0  0  0  0
 22 23  1  0  0  0  0
 23 24  1  0  0  0  0
 24 25  1  0  0  0  0
 25 26  1  0  0  0  0
 25 27  1  0  0  0  0
M  END
$$$$
CLR_2rh1_C_413
  PyMOL2.2          3D                             0

 28 31  0  0  1  0  0  0  0  0999 V2000
   -5.0485   -0.7678    0.1981 C   0  0  0  0  0  0  0  0  0  0  0  0
   -6.5728   -0.5603    0.2628 C   0  0  0  0  0  0  0  0  0  0  0  0
   -6.8809    0.8405    0.7867 C   0  0  3  0  0  0  0  0  0  0  0  0
   -6.2123    1.9171   -0.0755 C   0  0  0  0  0  0  0  0  0  0  0  0
   -4.7152    1.6925   -0.2296 C   0  0  0  0  0  0  0  0  0  0  0  0
   -3.8647    2.7146   -0.0386 C   0  0  0  0  0  0  0  0  0  0  0  0
   -2.3637    2.5951   -0.1647 C   0  0  0  0  0  0  0  0  0  0  0  0
   -1.9008    1.3178   -0.8851 C   0  0  3  0  0  0  0  0  0  0  0  0
   -2.7212    0.1007   -0.3843 C   0  0  3  0  0  0  0  0  0  0  0  0
   -4.2648    0.2820   -0.6438 C   0  0  3  0  0  0  0  0  0  0  0  0
   -2.1435   -1.2637   -0.8638 C   0  0  0  0  0  0  0  0  0  0  0  0
   -0.6149   -1.3922   -0.6985 C   0  0  0  0  0  0  0  0  0  0  0  0
    0.1365   -0.2035   -1.3308 C   0  0  3  0  0  0  0  0  0  0  0  0
   -0.3992    1.0656   -0.6447 C   0  0  3  0  0  0  0  0  0  0  0  0
    0.6015    2.1547   -1.0441 C   0  0  0  0  0  0  0  0  0  0  0  0
    1.9469    1.4112   -1.1268 C   0  0  0  0  0  0  0  0  0  0  0  0
    1.6256   -0.0864   -0.9147 C   0  0  3  0  0  0  0  0  0  0  0  0
   -0.0505   -0.2243   -2.8699 C   0  0  0  0  0  0  0  0  0  0  0  0
   -4.6129    0.1001   -2.1414 C   0  0  0  0  0  0  0  0  0  0  0  0
    2.6445   -1.1220   -1.4791 C   0  0  3  0  0  0  0  0  0  0  0  0
    3.7754   -1.3142   -0.4483 C   0  0  0  0  0  0  0  0  0  0  0  0
    3.2739   -0.7744   -2.8510 C   0  0  0  0  0  0  0  0  0  0  0  0
    3.9664   -1.9712   -3.5300 C   0  0  0  0  0  0  0  0  0  0  0  0
    4.3909   -1.6749   -4.9809 C   0  0  0  0  0  0  0  0  0  0  0  0
    5.3625   -0.4926   -5.1745 C   0  0  0  0  0  0  0  0  0  0  0  0
    6.6786   -0.6820   -4.4056 C   0  0  0  0  0  0  0  0  0  0  0  0
    5.6767   -0.3397   -6.6680 C   0  0  0  0  0  0  0  0  0  0  0  0
   -8.2817    1.0139    0.7884 O   0  0  0  0  0  0  0  0  0  0  0  0
  1  2  1  0  0  0  0
  1 10  1  0  0  0  0
  2  3  1  0  0  0  0
  3  4  1  0  0  0  0
  3 28  1  0  0  0  0
  4  5  1  0  0  0  0
  5  6  2  0  0  0  0
  5 10  1  0  0  0  0
  6  7  1  0  0  0  0
  7  8  1  0  0  0  0
  8  9  1  0  0  0  0
  8 14  1  0  0  0  0
  9 10  1  0  0  0  0
  9 11  1  0  0  0  0
 10 19  1  0  0  0  0
 11 12  1  0  0  0  0
 12 13  1  0  0  0  0
 13 14  1  0  0  0  0
 13 17  1  0  0  0  0
 13 18  1  0  0  0  0
 14 15  1  0  0  0  0
 15 16  1  0  0  0  0
 16 17  1  0  0  0  0
 17 20  1  0  0  0  0
 20 21  1  0  0  0  0
 20 22  1  0  0  0  0
 22 23  1  0  0  0  0
 23 24  1  0  0  0  0
 24 25  1  0  0  0  0
 25 26  1  0  0  0  0
 25 27  1  0  0  0  0
M  END
$$$$
CLR_2rh1_C_413
  PyMOL2.2          3D                             0

 28 31  0  0  1  0  0  0  0  0999 V2000
   -5.0485   -0.7676    0.1993 C   0  0  0  0  0  0  0  0  0  0  0  0
   -6.5724   -0.5599    0.2638 C   0  0  0  0  0  0  0  0  0  0  0  0
   -6.8805    0.8413    0.7865 C   0  0  3  0  0  0  0  0  0  0  0  0
   -6.2125    1.9168   -0.0767 C   0  0  0  0  0  0  0  0  0  0  0  0
   -4.7151    1.6930   -0.2310 C   0  0  0  0  0  0  0  0  0  0  0  0
   -3.8645    2.7150   -0.0404 C   0  0  0  0  0  0  0  0  0  0  0  0
   -2.3634    2.5955   -0.1666 C   0  0  0  0  0  0  0  0  0  0  0  0
   -1.9002    1.3173   -0.8850 C   0  0  3  0  0  0  0  0  0  0  0  0
   -2.7215    0.1000   -0.3840 C   0  0  3  0  0  0  0  0  0  0  0  0
   -4.2644    0.2814   -0.6435 C   0  0  3  0  0  0  0  0  0  0  0  0
   -2.1436   -1.2652   -0.8618 C   0  0  0  0  0  0  0  0  0  0  0  0
   -0.6146   -1.3924   -0.6988 C   0  0  0  0  0  0  0  0  0  0  0  0
    0.1366   -0.2034   -1.3316 C   0  0  3  0  0  0  0  0  0  0  0  0
   -0.3989    1.0658   -0.6443 C   0  0  3  0  0  0  0  0  0  0  0  0
    0.6022    2.1533   -1.0435 C   0  0  0  0  0  0  0  0  0  0  0  0
    1.9492    1.4112   -1.1197 C   0  0  0  0  0  0  0  0  0  0  0  0
    1.6249   -0.0872   -0.9141 C   0  0  3  0  0  0  0  0  0  0  0  0
   -0.0547   -0.2227   -2.8706 C   0  0  0  0  0  0  0  0  0  0  0  0
   -4.6130    0.0990   -2.1416 C   0  0  0  0  0  0  0  0  0  0  0  0
    2.6440   -1.1194   -1.4841 C   0  0  3  0  0  0  0  0  0  0  0  0
    3.7833   -1.3034   -0.4616 C   0  0  0  0  0  0  0  0  0  0  0  0
    3.2622   -0.7730   -2.8610 C   0  0  0  0  0  0  0  0  0  0  0  0
    3.8484   -1.9958   -3.5899 C   0  0  0  0  0  0  0  0  0  0  0  0
    4.4839   -1.6460   -4.9487 C   0  0  0  0  0  0  0  0  0  0  0  0
    3.5533   -0.9978   -5.9955 C   0  0  0  0  0  0  0  0  0  0  0  0
    4.3441   -0.7533   -7.2874 C   0  0  0  0  0  0  0  0  0  0  0  0
    2.3306   -1.8690   -6.3180 C   0  0  0  0  0  0  0  0  0  0  0  0
   -8.2822    1.0151    0.7879 O   0  0  0  0  0  0  0  0  0  0  0  0
  1  2  1  0  0  0  0
  1 10  1  0  0  0  0
  2  3  1  0  0  0  0
  3  4  1  0  0  0  0
  3 28  1  0  0  0  0
  4  5  1  0  0  0  0
  5  6  2  0  0  0  0
  5 10  1  0  0  0  0
  6  7  1  0  0  0  0
  7  8  1  0  0  0  0
  8  9  1  0  0  0  0
  8 14  1  0  0  0  0
  9 10  1  0  0  0  0
  9 11  1  0  0  0  0
 10 19  1  0  0  0  0
 11 12  1  0  0  0  0
 12 13  1  0  0  0  0
 13 14  1  0  0  0  0
 13 17  1  0  0  0  0
 13 18  1  0  0  0  0
 14 15  1  0  0  0  0
 15 16  1  0  0  0  0
 16 17  1  0  0  0  0
 17 20  1  0  0  0  0
 20 21  1  0  0  0  0
 20 22  1  0  0  0  0
 22 23  1  0  0  0  0
 23 24  1  0  0  0  0
 24 25  1  0  0  0  0
 25 26  1  0  0  0  0
 25 27  1  0  0  0  0
M  END
$$$$
CLR_2rh1_C_413
  PyMOL2.2          3D                             0

 28 31  0  0  1  0  0  0  0  0999 V2000
   -4.4026   -0.9284    0.5723 C   0  0  0  0  0  0  0  0  0  0  0  0
   -5.9132   -1.1843    0.4229 C   0  0  0  0  0  0  0  0  0  0  0  0
   -6.6593    0.1476    0.3629 C   0  0  3  0  0  0  0  0  0  0  0  0
   -6.1321    1.0301   -0.7741 C   0  0  0  0  0  0  0  0  0  0  0  0
   -4.6259    1.2330   -0.7032 C   0  0  0  0  0  0  0  0  0  0  0  0
   -4.1120    2.4679   -0.8293 C   0  0  0  0  0  0  0  0  0  0  0  0
   -2.6341    2.7754   -0.7710 C   0  0  0  0  0  0  0  0  0  0  0  0
   -1.7350    1.5363   -0.9257 C   0  0  3  0  0  0  0  0  0  0  0  0
   -2.3028    0.3627   -0.0847 C   0  0  3  0  0  0  0  0  0  0  0  0
   -3.7641   -0.0277   -0.5259 C   0  0  3  0  0  0  0  0  0  0  0  0
   -1.3192   -0.8401    0.0246 C   0  0  0  0  0  0  0  0  0  0  0  0
    0.1314   -0.4366    0.3603 C   0  0  0  0  0  0  0  0  0  0  0  0
    0.6662    0.6482   -0.5984 C   0  0  3  0  0  0  0  0  0  0  0  0
   -0.2928    1.8451   -0.4787 C   0  0  3  0  0  0  0  0  0  0  0  0
    0.4579    2.9917   -1.1634 C   0  0  0  0  0  0  0  0  0  0  0  0
    1.9385    2.7069   -0.8519 C   0  0  0  0  0  0  0  0  0  0  0  0
    1.9704    1.3409   -0.1278 C   0  0  3  0  0  0  0  0  0  0  0  0
    0.7864    0.0664   -2.0314 C   0  0  0  0  0  0  0  0  0  0  0  0
   -3.7634   -0.7875   -1.8757 C   0  0  0  0  0  0  0  0  0  0  0  0
    3.3011    0.5301   -0.1777 C   0  0  3  0  0  0  0  0  0  0  0  0
    4.2256    1.0228    0.9539 C   0  0  0  0  0  0  0  0  0  0  0  0
    4.0801    0.5850   -1.5184 C   0  0  0  0  0  0  0  0  0  0  0  0
    5.2343   -0.4225   -1.6839 C   0  0  0  0  0  0  0  0  0  0  0  0
    4.7749   -1.8901   -1.6117 C   0  0  0  0  0  0  0  0  0  0  0  0
    5.8612   -2.8899   -2.0489 C   0  0  0  0  0  0  0  0  0  0  0  0
    7.0849   -2.8693   -1.1207 C   0  0  0  0  0  0  0  0  0  0  0  0
    5.2695   -4.3058   -2.0576 C   0  0  0  0  0  0  0  0  0  0  0  0
   -8.0325   -0.1216    0.1785 O   0  0  0  0  0  0  0  0  0  0  0  0
  1  2  1  0  0  0  0
  1 10  1  0  0  0  0
  2  3  1  0  0  0  0
  3  4  1  0  0  0  0
  3 28  1  0  0  0  0
  4  5  1  0  0  0  0
  5  6  2  0  0  0  0
  5 10  1  0  0  0  0
  6  7  1  0  0  0  0
  7  8  1  0  0  0  0
  8  9  1  0  0  0  0
  8 14  1  0  0  0  0
  9 10  1  0  0  0  0
  9 11  1  0  0  0  0
 10 19  1  0  0  0  0
 11 12  1  0  0  0  0
 12 13  1  0  0  0  0
 13 14  1  0  0  0  0
 13 17  1  0  0  0  0
 13 18  1  0  0  0  0
 14 15  1  0  0  0  0
 15 16  1  0  0  0  0
 16 17  1  0  0  0  0
 17 20  1  0  0  0  0
 20 21  1  0  0  0  0
 20 22  1  0  0  0  0
 22 23  1  0  0  0  0
 23 24  1  0  0  0  0
 24 25  1  0  0  0  0
 25 26  1  0  0  0  0
 25 27  1  0  0  0  0
M  END
$$$$
CLR_2rh1_C_413
  PyMOL2.2          3D                             0

 28 31  0  0  1  0  0  0  0  0999 V2000
   -5.0917   -0.7465    0.1969 C   0  0  0  0  0  0  0  0  0  0  0  0
   -6.6125   -0.5141    0.2560 C   0  0  0  0  0  0  0  0  0  0  0  0
   -6.9016    0.8925    0.7756 C   0  0  3  0  0  0  0  0  0  0  0  0
   -6.2124    1.9568   -0.0841 C   0  0  0  0  0  0  0  0  0  0  0  0
   -4.7179    1.7081   -0.2313 C   0  0  0  0  0  0  0  0  0  0  0  0
   -3.8505    2.7161   -0.0368 C   0  0  0  0  0  0  0  0  0  0  0  0
   -2.3517    2.5711   -0.1561 C   0  0  0  0  0  0  0  0  0  0  0  0
   -1.9046    1.2840   -0.8733 C   0  0  3  0  0  0  0  0  0  0  0  0
   -2.7498    0.0846   -0.3759 C   0  0  3  0  0  0  0  0  0  0  0  0
   -4.2883    0.2906   -0.6424 C   0  0  3  0  0  0  0  0  0  0  0  0
   -2.1855   -1.2774   -0.8673 C   0  0  0  0  0  0  0  0  0  0  0  0
   -0.6645   -1.4282   -0.6708 C   0  0  0  0  0  0  0  0  0  0  0  0
    0.1350   -0.2668   -1.3080 C   0  0  3  0  0  0  0  0  0  0  0  0
   -0.4064    1.0072   -0.6283 C   0  0  3  0  0  0  0  0  0  0  0  0
    0.5777    2.1001   -1.0322 C   0  0  0  0  0  0  0  0  0  0  0  0
    1.9175    1.3574   -1.0846 C   0  0  0  0  0  0  0  0  0  0  0  0
    1.6347   -0.1520   -0.9030 C   0  0  3  0  0  0  0  0  0  0  0  0
   -0.0199   -0.2815   -2.8532 C   0  0  0  0  0  0  0  0  0  0  0  0
   -4.6332    0.1126   -2.1416 C   0  0  0  0  0  0  0  0  0  0  0  0
    2.7175   -1.0460   -1.5868 C   0  0  3  0  0  0  0  0  0  0  0  0
    2.3850   -2.5448   -1.4684 C   0  0  0  0  0  0  0  0  0  0  0  0
    4.1306   -0.8431   -0.9718 C   0  0  0  0  0  0  0  0  0  0  0  0
    4.9792    0.2521   -1.6463 C   0  0  0  0  0  0  0  0  0  0  0  0
    6.4444    0.2539   -1.1732 C   0  0  0  0  0  0  0  0  0  0  0  0
    6.6659    0.4702    0.3389 C   0  0  0  0  0  0  0  0  0  0  0  0
    8.1708    0.4438    0.6345 C   0  0  0  0  0  0  0  0  0  0  0  0
    6.0852    1.8022    0.8345 C   0  0  0  0  0  0  0  0  0  0  0  0
   -8.2994    1.0889    0.7704 O   0  0  0  0  0  0  0  0  0  0  0  0
  1  2  1  0  0  0  0
  1 10  1  0  0  0  0
  2  3  1  0  0  0  0
  3  4  1  0  0  0  0
  3 28  1  0  0  0  0
  4  5  1  0  0  0  0
  5  6  2  0  0  0  0
  5 10  1  0  0  0  0
  6  7  1  0  0  0  0
  7  8  1  0  0  0  0
  8  9  1  0  0  0  0
  8 14  1  0  0  0  0
  9 10  1  0  0  0  0
  9 11  1  0  0  0  0
 10 19  1  0  0  0  0
 11 12  1  0  0  0  0
 12 13  1  0  0  0  0
 13 14  1  0  0  0  0
 13 17  1  0  0  0  0
 13 18  1  0  0  0  0
 14 15  1  0  0  0  0
 15 16  1  0  0  0  0
 16 17  1  0  0  0  0
 17 20  1  0  0  0  0
 20 21  1  0  0  0  0
 20 22  1  0  0  0  0
 22 23  1  0  0  0  0
 23 24  1  0  0  0  0
 24 25  1  0  0  0  0
 25 26  1  0  0  0  0
 25 27  1  0  0  0  0
M  END
$$$$
CLR_2rh1_C_413
  PyMOL2.2          3D                             0

 28 31  0  0  1  0  0  0  0  0999 V2000
   -5.0934   -0.7443    0.1940 C   0  0  0  0  0  0  0  0  0  0  0  0
   -6.6147   -0.5110    0.2488 C   0  0  0  0  0  0  0  0  0  0  0  0
   -6.9034    0.8960    0.7674 C   0  0  3  0  0  0  0  0  0  0  0  0
   -6.2106    1.9596   -0.0920 C   0  0  0  0  0  0  0  0  0  0  0  0
   -4.7166    1.7102   -0.2363 C   0  0  0  0  0  0  0  0  0  0  0  0
   -3.8493    2.7168   -0.0398 C   0  0  0  0  0  0  0  0  0  0  0  0
   -2.3497    2.5711   -0.1557 C   0  0  0  0  0  0  0  0  0  0  0  0
   -1.9025    1.2838   -0.8710 C   0  0  3  0  0  0  0  0  0  0  0  0
   -2.7490    0.0839   -0.3761 C   0  0  3  0  0  0  0  0  0  0  0  0
   -4.2868    0.2916   -0.6451 C   0  0  3  0  0  0  0  0  0  0  0  0
   -2.1877   -1.2806   -0.8649 C   0  0  0  0  0  0  0  0  0  0  0  0
   -0.6670   -1.4363   -0.6635 C   0  0  0  0  0  0  0  0  0  0  0  0
    0.1316   -0.2718   -1.2928 C   0  0  3  0  0  0  0  0  0  0  0  0
   -0.4058    1.0063   -0.6204 C   0  0  3  0  0  0  0  0  0  0  0  0
    0.5904    2.0908   -1.0306 C   0  0  0  0  0  0  0  0  0  0  0  0
    1.9295    1.3417   -1.0675 C   0  0  0  0  0  0  0  0  0  0  0  0
    1.6226   -0.1634   -0.8699 C   0  0  3  0  0  0  0  0  0  0  0  0
   -0.0165   -0.2899   -2.8388 C   0  0  0  0  0  0  0  0  0  0  0  0
   -4.6284    0.1129   -2.1453 C   0  0  0  0  0  0  0  0  0  0  0  0
    2.6911   -1.0694   -1.5484 C   0  0  3  0  0  0  0  0  0  0  0  0
    2.3766   -2.5734   -1.4451 C   0  0  0  0  0  0  0  0  0  0  0  0
    4.1386   -0.7726   -1.0713 C   0  0  0  0  0  0  0  0  0  0  0  0
    4.4524   -0.6674    0.4371 C   0  0  0  0  0  0  0  0  0  0  0  0
    4.1898   -1.9437    1.2540 C   0  0  0  0  0  0  0  0  0  0  0  0
    4.6900   -1.8619    2.7094 C   0  0  0  0  0  0  0  0  0  0  0  0
    4.1759   -3.0820    3.4849 C   0  0  0  0  0  0  0  0  0  0  0  0
    6.2230   -1.8303    2.8122 C   0  0  0  0  0  0  0  0  0  0  0  0
   -8.3002    1.0937    0.7591 O   0  0  0  0  0  0  0  0  0  0  0  0
  1  2  1  0  0  0  0
  1 10  1  0  0  0  0
  2  3  1  0  0  0  0
  3  4  1  0  0  0  0
  3 28  1  0  0  0  0
  4  5  1  0  0  0  0
  5  6  2  0  0  0  0
  5 10  1  0  0  0  0
  6  7  1  0  0  0  0
  7  8  1  0  0  0  0
  8  9  1  0  0  0  0
  8 14  1  0  0  0  0
  9 10  1  0  0  0  0
  9 11  1  0  0  0  0
 10 19  1  0  0  0  0
 11 12  1  0  0  0  0
 12 13  1  0  0  0  0
 13 14  1  0  0  0  0
 13 17  1  0  0  0  0
 13 18  1  0  0  0  0
 14 15  1  0  0  0  0
 15 16  1  0  0  0  0
 16 17  1  0  0  0  0
 17 20  1  0  0  0  0
 20 21  1  0  0  0  0
 20 22  1  0  0  0  0
 22 23  1  0  0  0  0
 23 24  1  0  0  0  0
 24 25  1  0  0  0  0
 25 26  1  0  0  0  0
 25 27  1  0  0  0  0
M  END
$$$$
CLR_2rh1_C_413
  PyMOL2.2          3D                             0

 28 31  0  0  1  0  0  0  0  0999 V2000
   -5.0659   -0.7578    0.2050 C   0  0  0  0  0  0  0  0  0  0  0  0
   -6.5896   -0.5402    0.2649 C   0  0  0  0  0  0  0  0  0  0  0  0
   -6.8906    0.8651    0.7800 C   0  0  3  0  0  0  0  0  0  0  0  0
   -6.2128    1.9328   -0.0859 C   0  0  0  0  0  0  0  0  0  0  0  0
   -4.7169    1.6986   -0.2346 C   0  0  0  0  0  0  0  0  0  0  0  0
   -3.8591    2.7151   -0.0465 C   0  0  0  0  0  0  0  0  0  0  0  0
   -2.3585    2.5843   -0.1669 C   0  0  0  0  0  0  0  0  0  0  0  0
   -1.9012    1.2988   -0.8796 C   0  0  3  0  0  0  0  0  0  0  0  0
   -2.7322    0.0928   -0.3768 C   0  0  3  0  0  0  0  0  0  0  0  0
   -4.2746    0.2830   -0.6408 C   0  0  3  0  0  0  0  0  0  0  0  0
   -2.1587   -1.2678   -0.8616 C   0  0  0  0  0  0  0  0  0  0  0  0
   -0.6349   -1.4048   -0.6692 C   0  0  0  0  0  0  0  0  0  0  0  0
    0.1467   -0.2346   -1.3093 C   0  0  3  0  0  0  0  0  0  0  0  0
   -0.4004    1.0390   -0.6357 C   0  0  3  0  0  0  0  0  0  0  0  0
    0.5806    2.1344   -1.0479 C   0  0  0  0  0  0  0  0  0  0  0  0
    1.9278    1.4010   -1.0875 C   0  0  0  0  0  0  0  0  0  0  0  0
    1.6420   -0.1093   -0.9029 C   0  0  3  0  0  0  0  0  0  0  0  0
   -0.0098   -0.2614   -2.8538 C   0  0  0  0  0  0  0  0  0  0  0  0
   -4.6201    0.0948   -2.1380 C   0  0  0  0  0  0  0  0  0  0  0  0
    2.7176   -0.9923   -1.6008 C   0  0  3  0  0  0  0  0  0  0  0  0
    2.4574   -2.4999   -1.4281 C   0  0  0  0  0  0  0  0  0  0  0  0
    4.1619   -0.6701   -1.1410 C   0  0  0  0  0  0  0  0  0  0  0  0
    4.4381   -0.8398    0.3653 C   0  0  0  0  0  0  0  0  0  0  0  0
    5.9191   -0.6898    0.7602 C   0  0  0  0  0  0  0  0  0  0  0  0
    6.5318    0.7027    0.4899 C   0  0  0  0  0  0  0  0  0  0  0  0
    7.5265    1.0662    1.6011 C   0  0  0  0  0  0  0  0  0  0  0  0
    7.2882    0.7518   -0.8486 C   0  0  0  0  0  0  0  0  0  0  0  0
   -8.2905    1.0480    0.7762 O   0  0  0  0  0  0  0  0  0  0  0  0
  1  2  1  0  0  0  0
  1 10  1  0  0  0  0
  2  3  1  0  0  0  0
  3  4  1  0  0  0  0
  3 28  1  0  0  0  0
  4  5  1  0  0  0  0
  5  6  2  0  0  0  0
  5 10  1  0  0  0  0
  6  7  1  0  0  0  0
  7  8  1  0  0  0  0
  8  9  1  0  0  0  0
  8 14  1  0  0  0  0
  9 10  1  0  0  0  0
  9 11  1  0  0  0  0
 10 19  1  0  0  0  0
 11 12  1  0  0  0  0
 12 13  1  0  0  0  0
 13 14  1  0  0  0  0
 13 17  1  0  0  0  0
 13 18  1  0  0  0  0
 14 15  1  0  0  0  0
 15 16  1  0  0  0  0
 16 17  1  0  0  0  0
 17 20  1  0  0  0  0
 20 21  1  0  0  0  0
 20 22  1  0  0  0  0
 22 23  1  0  0  0  0
 23 24  1  0  0  0  0
 24 25  1  0  0  0  0
 25 26  1  0  0  0  0
 25 27  1  0  0  0  0
M  END
$$$$
CLR_2rh1_C_413
  PyMOL2.2          3D                             0

 28 31  0  0  1  0  0  0  0  0999 V2000
   -4.7589   -0.8121    0.3789 C   0  0  0  0  0  0  0  0  0  0  0  0
   -6.2701   -0.9120    0.0997 C   0  0  0  0  0  0  0  0  0  0  0  0
   -6.8814    0.4863    0.0591 C   0  0  3  0  0  0  0  0  0  0  0  0
   -6.1840    1.3687   -0.9814 C   0  0  0  0  0  0  0  0  0  0  0  0
   -4.6766    1.4213   -0.7856 C   0  0  0  0  0  0  0  0  0  0  0  0
   -4.0419    2.6055   -0.8009 C   0  0  0  0  0  0  0  0  0  0  0  0
   -2.5509    2.7645   -0.6134 C   0  0  0  0  0  0  0  0  0  0  0  0
   -1.7615    1.4537   -0.7688 C   0  0  3  0  0  0  0  0  0  0  0  0
   -2.5018    0.2996   -0.0416 C   0  0  3  0  0  0  0  0  0  0  0  0
   -3.9523    0.0754   -0.6153 C   0  0  3  0  0  0  0  0  0  0  0  0
   -1.6470   -0.9963    0.0742 C   0  0  0  0  0  0  0  0  0  0  0  0
   -0.1966   -0.7530    0.5399 C   0  0  0  0  0  0  0  0  0  0  0  0
    0.5122    0.3214   -0.3102 C   0  0  3  0  0  0  0  0  0  0  0  0
   -0.3380    1.5987   -0.1951 C   0  0  3  0  0  0  0  0  0  0  0  0
    0.5688    2.6994   -0.7533 C   0  0  0  0  0  0  0  0  0  0  0  0
    1.9849    2.2601   -0.3400 C   0  0  0  0  0  0  0  0  0  0  0  0
    1.8314    0.8600    0.2993 C   0  0  3  0  0  0  0  0  0  0  0  0
    0.6941   -0.1954   -1.7619 C   0  0  0  0  0  0  0  0  0  0  0  0
   -3.9131   -0.6138   -2.0009 C   0  0  0  0  0  0  0  0  0  0  0  0
    3.0870   -0.0644    0.3023 C   0  0  3  0  0  0  0  0  0  0  0  0
    3.9608    0.2975    1.5205 C   0  0  0  0  0  0  0  0  0  0  0  0
    3.9654   -0.0204   -0.9733 C   0  0  0  0  0  0  0  0  0  0  0  0
    4.9279   -1.2147   -1.0954 C   0  0  0  0  0  0  0  0  0  0  0  0
    5.6849   -1.1544   -2.4352 C   0  0  0  0  0  0  0  0  0  0  0  0
    6.6928   -2.2944   -2.6890 C   0  0  0  0  0  0  0  0  0  0  0  0
    7.8292   -2.3099   -1.6563 C   0  0  0  0  0  0  0  0  0  0  0  0
    6.0180   -3.6719   -2.7297 C   0  0  0  0  0  0  0  0  0  0  0  0
   -8.2544    0.3616   -0.2447 O   0  0  0  0  0  0  0  0  0  0  0  0
  1  2  1  0  0  0  0
  1 10  1  0  0  0  0
  2  3  1  0  0  0  0
  3  4  1  0  0  0  0
  3 28  1  0  0  0  0
  4  5  1  0  0  0  0
  5  6  2  0  0  0  0
  5 10  1  0  0  0  0
  6  7  1  0  0  0  0
  7  8  1  0  0  0  0
  8  9  1  0  0  0  0
  8 14  1  0  0  0  0
  9 10  1  0  0  0  0
  9 11  1  0  0  0  0
 10 19  1  0  0  0  0
 11 12  1  0  0  0  0
 12 13  1  0  0  0  0
 13 14  1  0  0  0  0
 13 17  1  0  0  0  0
 13 18  1  0  0  0  0
 14 15  1  0  0  0  0
 15 16  1  0  0  0  0
 16 17  1  0  0  0  0
 17 20  1  0  0  0  0
 20 21  1  0  0  0  0
 20 22  1  0  0  0  0
 22 23  1  0  0  0  0
 23 24  1  0  0  0  0
 24 25  1  0  0  0  0
 25 26  1  0  0  0  0
 25 27  1  0  0  0  0
M  END
$$$$
CLR_2rh1_C_413
  PyMOL2.2          3D                             0

 28 31  0  0  1  0  0  0  0  0999 V2000
   -5.0477   -0.7702    0.1938 C   0  0  0  0  0  0  0  0  0  0  0  0
   -6.5719   -0.5628    0.2629 C   0  0  0  0  0  0  0  0  0  0  0  0
   -6.8790    0.8357    0.7940 C   0  0  3  0  0  0  0  0  0  0  0  0
   -6.2120    1.9166   -0.0647 C   0  0  0  0  0  0  0  0  0  0  0  0
   -4.7148    1.6927   -0.2225 C   0  0  0  0  0  0  0  0  0  0  0  0
   -3.8633    2.7127   -0.0256 C   0  0  0  0  0  0  0  0  0  0  0  0
   -2.3626    2.5935   -0.1535 C   0  0  0  0  0  0  0  0  0  0  0  0
   -1.9028    1.3218   -0.8873 C   0  0  3  0  0  0  0  0  0  0  0  0
   -2.7219    0.0999   -0.3921 C   0  0  3  0  0  0  0  0  0  0  0  0
   -4.2662    0.2838   -0.6455 C   0  0  3  0  0  0  0  0  0  0  0  0
   -2.1449   -1.2599   -0.8836 C   0  0  0  0  0  0  0  0  0  0  0  0
   -0.6190   -1.3919   -0.7065 C   0  0  0  0  0  0  0  0  0  0  0  0
    0.1373   -0.2051   -1.3370 C   0  0  3  0  0  0  0  0  0  0  0  0
   -0.3992    1.0679   -0.6566 C   0  0  3  0  0  0  0  0  0  0  0  0
    0.5996    2.1539   -1.0685 C   0  0  0  0  0  0  0  0  0  0  0  0
    1.9443    1.4093   -1.1540 C   0  0  0  0  0  0  0  0  0  0  0  0
    1.6239   -0.0838   -0.9107 C   0  0  3  0  0  0  0  0  0  0  0  0
   -0.0572   -0.2222   -2.8762 C   0  0  0  0  0  0  0  0  0  0  0  0
   -4.6185    0.1096   -2.1434 C   0  0  0  0  0  0  0  0  0  0  0  0
    2.6652   -1.1300   -1.4111 C   0  0  3  0  0  0  0  0  0  0  0  0
    3.8397   -1.1652   -0.4108 C   0  0  0  0  0  0  0  0  0  0  0  0
    3.2320   -0.9176   -2.8400 C   0  0  0  0  0  0  0  0  0  0  0  0
    4.1755   -2.0130   -3.3793 C   0  0  0  0  0  0  0  0  0  0  0  0
    3.6403   -3.4579   -3.3281 C   0  0  0  0  0  0  0  0  0  0  0  0
    2.2874   -3.7005   -4.0255 C   0  0  0  0  0  0  0  0  0  0  0  0
    2.3304   -3.3648   -5.5227 C   0  0  0  0  0  0  0  0  0  0  0  0
    1.8878   -5.1720   -3.8546 C   0  0  0  0  0  0  0  0  0  0  0  0
   -8.2800    1.0100    0.7993 O   0  0  0  0  0  0  0  0  0  0  0  0
  1  2  1  0  0  0  0
  1 10  1  0  0  0  0
  2  3  1  0  0  0  0
  3  4  1  0  0  0  0
  3 28  1  0  0  0  0
  4  5  1  0  0  0  0
  5  6  2  0  0  0  0
  5 10  1  0  0  0  0
  6  7  1  0  0  0  0
  7  8  1  0  0  0  0
  8  9  1  0  0  0  0
  8 14  1  0  0  0  0
  9 10  1  0  0  0  0
  9 11  1  0  0  0  0
 10 19  1  0  0  0  0
 11 12  1  0  0  0  0
 12 13  1  0  0  0  0
 13 14  1  0  0  0  0
 13 17  1  0  0  0  0
 13 18  1  0  0  0  0
 14 15  1  0  0  0  0
 15 16  1  0  0  0  0
 16 17  1  0  0  0  0
 17 20  1  0  0  0  0
 20 21  1  0  0  0  0
 20 22  1  0  0  0  0
 22 23  1  0  0  0  0
 23 24  1  0  0  0  0
 24 25  1  0  0  0  0
 25 26  1  0  0  0  0
 25 27  1  0  0  0  0
M  END
$$$$
CLR_2rh1_C_413
  PyMOL2.2          3D                             0

 28 31  0  0  1  0  0  0  0  0999 V2000
   -5.0687   -0.7540    0.2119 C   0  0  0  0  0  0  0  0  0  0  0  0
   -6.5923   -0.5387    0.2681 C   0  0  0  0  0  0  0  0  0  0  0  0
   -6.8964    0.8710    0.7757 C   0  0  3  0  0  0  0  0  0  0  0  0
   -6.2142    1.9357   -0.0880 C   0  0  0  0  0  0  0  0  0  0  0  0
   -4.7176    1.6988   -0.2348 C   0  0  0  0  0  0  0  0  0  0  0  0
   -3.8592    2.7139   -0.0458 C   0  0  0  0  0  0  0  0  0  0  0  0
   -2.3589    2.5817   -0.1659 C   0  0  0  0  0  0  0  0  0  0  0  0
   -1.9023    1.2967   -0.8785 C   0  0  3  0  0  0  0  0  0  0  0  0
   -2.7344    0.0918   -0.3759 C   0  0  3  0  0  0  0  0  0  0  0  0
   -4.2760    0.2823   -0.6381 C   0  0  3  0  0  0  0  0  0  0  0  0
   -2.1597   -1.2650   -0.8657 C   0  0  0  0  0  0  0  0  0  0  0  0
   -0.6367   -1.4011   -0.6668 C   0  0  0  0  0  0  0  0  0  0  0  0
    0.1543   -0.2375   -1.3105 C   0  0  3  0  0  0  0  0  0  0  0  0
   -0.4010    1.0341   -0.6378 C   0  0  3  0  0  0  0  0  0  0  0  0
    0.5700    2.1311   -1.0587 C   0  0  0  0  0  0  0  0  0  0  0  0
    1.9183    1.4048   -1.0637 C   0  0  0  0  0  0  0  0  0  0  0  0
    1.6551   -0.1130   -0.9095 C   0  0  3  0  0  0  0  0  0  0  0  0
   -0.0039   -0.2575   -2.8553 C   0  0  0  0  0  0  0  0  0  0  0  0
   -4.6230    0.0914   -2.1350 C   0  0  0  0  0  0  0  0  0  0  0  0
    2.7360   -0.9948   -1.6137 C   0  0  3  0  0  0  0  0  0  0  0  0
    2.4070   -2.4956   -1.4956 C   0  0  0  0  0  0  0  0  0  0  0  0
    4.1678   -0.8239   -1.0264 C   0  0  0  0  0  0  0  0  0  0  0  0
    4.9986    0.4105   -1.4315 C   0  0  0  0  0  0  0  0  0  0  0  0
    5.1782    0.5564   -2.9529 C   0  0  0  0  0  0  0  0  0  0  0  0
    6.1802    1.6595   -3.3437 C   0  0  0  0  0  0  0  0  0  0  0  0
    6.3917    1.6315   -4.8632 C   0  0  0  0  0  0  0  0  0  0  0  0
    5.6986    3.0606   -2.9369 C   0  0  0  0  0  0  0  0  0  0  0  0
   -8.2951    1.0624    0.7601 O   0  0  0  0  0  0  0  0  0  0  0  0
  1  2  1  0  0  0  0
  1 10  1  0  0  0  0
  2  3  1  0  0  0  0
  3  4  1  0  0  0  0
  3 28  1  0  0  0  0
  4  5  1  0  0  0  0
  5  6  2  0  0  0  0
  5 10  1  0  0  0  0
  6  7  1  0  0  0  0
  7  8  1  0  0  0  0
  8  9  1  0  0  0  0
  8 14  1  0  0  0  0
  9 10  1  0  0  0  0
  9 11  1  0  0  0  0
 10 19  1  0  0  0  0
 11 12  1  0  0  0  0
 12 13  1  0  0  0  0
 13 14  1  0  0  0  0
 13 17  1  0  0  0  0
 13 18  1  0  0  0  0
 14 15  1  0  0  0  0
 15 16  1  0  0  0  0
 16 17  1  0  0  0  0
 17 20  1  0  0  0  0
 20 21  1  0  0  0  0
 20 22  1  0  0  0  0
 22 23  1  0  0  0  0
 23 24  1  0  0  0  0
 24 25  1  0  0  0  0
 25 26  1  0  0  0  0
 25 27  1  0  0  0  0
M  END
$$$$
CLR_2rh1_C_413
  PyMOL2.2          3D                             0

 28 31  0  0  1  0  0  0  0  0999 V2000
   -5.0667   -0.7578    0.2056 C   0  0  0  0  0  0  0  0  0  0  0  0
   -6.5893   -0.5394    0.2669 C   0  0  0  0  0  0  0  0  0  0  0  0
   -6.8898    0.8663    0.7818 C   0  0  3  0  0  0  0  0  0  0  0  0
   -6.2126    1.9328   -0.0851 C   0  0  0  0  0  0  0  0  0  0  0  0
   -4.7162    1.6986   -0.2349 C   0  0  0  0  0  0  0  0  0  0  0  0
   -3.8585    2.7153   -0.0464 C   0  0  0  0  0  0  0  0  0  0  0  0
   -2.3589    2.5845   -0.1688 C   0  0  0  0  0  0  0  0  0  0  0  0
   -1.9015    1.2983   -0.8813 C   0  0  3  0  0  0  0  0  0  0  0  0
   -2.7325    0.0925   -0.3779 C   0  0  3  0  0  0  0  0  0  0  0  0
   -4.2750    0.2829   -0.6407 C   0  0  3  0  0  0  0  0  0  0  0  0
   -2.1591   -1.2682   -0.8638 C   0  0  0  0  0  0  0  0  0  0  0  0
   -0.6357   -1.4053   -0.6707 C   0  0  0  0  0  0  0  0  0  0  0  0
    0.1473   -0.2360   -1.3102 C   0  0  3  0  0  0  0  0  0  0  0  0
   -0.4009    1.0382   -0.6363 C   0  0  3  0  0  0  0  0  0  0  0  0
    0.5797    2.1335   -1.0508 C   0  0  0  0  0  0  0  0  0  0  0  0
    1.9275    1.4021   -1.0795 C   0  0  0  0  0  0  0  0  0  0  0  0
    1.6422   -0.1090   -0.9023 C   0  0  3  0  0  0  0  0  0  0  0  0
   -0.0086   -0.2629   -2.8542 C   0  0  0  0  0  0  0  0  0  0  0  0
   -4.6217    0.0947   -2.1383 C   0  0  0  0  0  0  0  0  0  0  0  0
    2.7197   -0.9893   -1.6013 C   0  0  3  0  0  0  0  0  0  0  0  0
    2.4686   -2.4958   -1.4131 C   0  0  0  0  0  0  0  0  0  0  0  0
    4.1672   -0.6570   -1.1582 C   0  0  0  0  0  0  0  0  0  0  0  0
    4.4617   -0.8243    0.3477 C   0  0  0  0  0  0  0  0  0  0  0  0
    5.9350   -0.5548    0.7166 C   0  0  0  0  0  0  0  0  0  0  0  0
    6.3332    0.8816    1.1238 C   0  0  0  0  0  0  0  0  0  0  0  0
    6.0719    1.9286    0.0344 C   0  0  0  0  0  0  0  0  0  0  0  0
    5.6526    1.3254    2.4272 C   0  0  0  0  0  0  0  0  0  0  0  0
   -8.2893    1.0492    0.7802 O   0  0  0  0  0  0  0  0  0  0  0  0
  1  2  1  0  0  0  0
  1 10  1  0  0  0  0
  2  3  1  0  0  0  0
  3  4  1  0  0  0  0
  3 28  1  0  0  0  0
  4  5  1  0  0  0  0
  5  6  2  0  0  0  0
  5 10  1  0  0  0  0
  6  7  1  0  0  0  0
  7  8  1  0  0  0  0
  8  9  1  0  0  0  0
  8 14  1  0  0  0  0
  9 10  1  0  0  0  0
  9 11  1  0  0  0  0
 10 19  1  0  0  0  0
 11 12  1  0  0  0  0
 12 13  1  0  0  0  0
 13 14  1  0  0  0  0
 13 17  1  0  0  0  0
 13 18  1  0  0  0  0
 14 15  1  0  0  0  0
 15 16  1  0  0  0  0
 16 17  1  0  0  0  0
 17 20  1  0  0  0  0
 20 21  1  0  0  0  0
 20 22  1  0  0  0  0
 22 23  1  0  0  0  0
 23 24  1  0  0  0  0
 24 25  1  0  0  0  0
 25 26  1  0  0  0  0
 25 27  1  0  0  0  0
M  END
$$$$
CLR_2rh1_C_413
  PyMOL2.2          3D                             0

 28 31  0  0  1  0  0  0  0  0999 V2000
   -5.0656   -0.7587    0.2045 C   0  0  0  0  0  0  0  0  0  0  0  0
   -6.5889   -0.5405    0.2653 C   0  0  0  0  0  0  0  0  0  0  0  0
   -6.8901    0.8649    0.7821 C   0  0  3  0  0  0  0  0  0  0  0  0
   -6.2125    1.9326   -0.0839 C   0  0  0  0  0  0  0  0  0  0  0  0
   -4.7164    1.6987   -0.2333 C   0  0  0  0  0  0  0  0  0  0  0  0
   -3.8586    2.7140   -0.0444 C   0  0  0  0  0  0  0  0  0  0  0  0
   -2.3582    2.5835   -0.1659 C   0  0  0  0  0  0  0  0  0  0  0  0
   -1.9015    1.2992   -0.8805 C   0  0  3  0  0  0  0  0  0  0  0  0
   -2.7327    0.0921   -0.3781 C   0  0  3  0  0  0  0  0  0  0  0  0
   -4.2746    0.2832   -0.6409 C   0  0  3  0  0  0  0  0  0  0  0  0
   -2.1597   -1.2671   -0.8658 C   0  0  0  0  0  0  0  0  0  0  0  0
   -0.6357   -1.4046   -0.6730 C   0  0  0  0  0  0  0  0  0  0  0  0
    0.1477   -0.2351   -1.3101 C   0  0  3  0  0  0  0  0  0  0  0  0
   -0.4002    1.0391   -0.6372 C   0  0  3  0  0  0  0  0  0  0  0  0
    0.5791    2.1342   -1.0519 C   0  0  0  0  0  0  0  0  0  0  0  0
    1.9259    1.4000   -1.0971 C   0  0  0  0  0  0  0  0  0  0  0  0
    1.6416   -0.1096   -0.8979 C   0  0  3  0  0  0  0  0  0  0  0  0
   -0.0095   -0.2584   -2.8552 C   0  0  0  0  0  0  0  0  0  0  0  0
   -4.6211    0.0973   -2.1384 C   0  0  0  0  0  0  0  0  0  0  0  0
    2.7203   -0.9933   -1.5866 C   0  0  3  0  0  0  0  0  0  0  0  0
    2.4345   -2.5007   -1.4582 C   0  0  0  0  0  0  0  0  0  0  0  0
    4.1729   -0.7064   -1.1201 C   0  0  0  0  0  0  0  0  0  0  0  0
    4.5738   -1.0777    0.3259 C   0  0  0  0  0  0  0  0  0  0  0  0
    4.4115    0.0698    1.3398 C   0  0  0  0  0  0  0  0  0  0  0  0
    4.7949   -0.3242    2.7783 C   0  0  0  0  0  0  0  0  0  0  0  0
    6.2881   -0.6500    2.9287 C   0  0  0  0  0  0  0  0  0  0  0  0
    4.4467    0.8326    3.7252 C   0  0  0  0  0  0  0  0  0  0  0  0
   -8.2899    1.0472    0.7792 O   0  0  0  0  0  0  0  0  0  0  0  0
  1  2  1  0  0  0  0
  1 10  1  0  0  0  0
  2  3  1  0  0  0  0
  3  4  1  0  0  0  0
  3 28  1  0  0  0  0
  4  5  1  0  0  0  0
  5  6  2  0  0  0  0
  5 10  1  0  0  0  0
  6  7  1  0  0  0  0
  7  8  1  0  0  0  0
  8  9  1  0  0  0  0
  8 14  1  0  0  0  0
  9 10  1  0  0  0  0
  9 11  1  0  0  0  0
 10 19  1  0  0  0  0
 11 12  1  0  0  0  0
 12 13  1  0  0  0  0
 13 14  1  0  0  0  0
 13 17  1  0  0  0  0
 13 18  1  0  0  0  0
 14 15  1  0  0  0  0
 15 16  1  0  0  0  0
 16 17  1  0  0  0  0
 17 20  1  0  0  0  0
 20 21  1  0  0  0  0
 20 22  1  0  0  0  0
 22 23  1  0  0  0  0
 23 24  1  0  0  0  0
 24 25  1  0  0  0  0
 25 26  1  0  0  0  0
 25 27  1  0  0  0  0
M  END
$$$$
CLR_2rh1_C_413
  PyMOL2.2          3D                             0

 28 31  0  0  1  0  0  0  0  0999 V2000
   -5.0692   -0.7566    0.2069 C   0  0  0  0  0  0  0  0  0  0  0  0
   -6.5924   -0.5377    0.2664 C   0  0  0  0  0  0  0  0  0  0  0  0
   -6.8917    0.8693    0.7798 C   0  0  3  0  0  0  0  0  0  0  0  0
   -6.2128    1.9350   -0.0869 C   0  0  0  0  0  0  0  0  0  0  0  0
   -4.7175    1.6994   -0.2352 C   0  0  0  0  0  0  0  0  0  0  0  0
   -3.8586    2.7148   -0.0466 C   0  0  0  0  0  0  0  0  0  0  0  0
   -2.3589    2.5825   -0.1683 C   0  0  0  0  0  0  0  0  0  0  0  0
   -1.9024    1.2973   -0.8792 C   0  0  3  0  0  0  0  0  0  0  0  0
   -2.7352    0.0922   -0.3753 C   0  0  3  0  0  0  0  0  0  0  0  0
   -4.2758    0.2826   -0.6402 C   0  0  3  0  0  0  0  0  0  0  0  0
   -2.1603   -1.2675   -0.8617 C   0  0  0  0  0  0  0  0  0  0  0  0
   -0.6380   -1.4041   -0.6644 C   0  0  0  0  0  0  0  0  0  0  0  0
    0.1504   -0.2394   -1.3097 C   0  0  3  0  0  0  0  0  0  0  0  0
   -0.4007    1.0342   -0.6365 C   0  0  3  0  0  0  0  0  0  0  0  0
    0.5744    2.1309   -1.0552 C   0  0  0  0  0  0  0  0  0  0  0  0
    1.9225    1.4021   -1.0705 C   0  0  0  0  0  0  0  0  0  0  0  0
    1.6485   -0.1149   -0.9067 C   0  0  3  0  0  0  0  0  0  0  0  0
   -0.0077   -0.2615   -2.8541 C   0  0  0  0  0  0  0  0  0  0  0  0
   -4.6217    0.0944   -2.1373 C   0  0  0  0  0  0  0  0  0  0  0  0
    2.7365   -0.9815   -1.6134 C   0  0  3  0  0  0  0  0  0  0  0  0
    2.4424   -2.4899   -1.5087 C   0  0  0  0  0  0  0  0  0  0  0  0
    4.1347   -0.6830   -1.0140 C   0  0  0  0  0  0  0  0  0  0  0  0
    5.3082   -1.3445   -1.7640 C   0  0  0  0  0  0  0  0  0  0  0  0
    6.6780   -0.7784   -1.3422 C   0  0  0  0  0  0  0  0  0  0  0  0
    7.2497    0.3010   -2.2856 C   0  0  0  0  0  0  0  0  0  0  0  0
    6.3739    1.5577   -2.3832 C   0  0  0  0  0  0  0  0  0  0  0  0
    8.6443    0.7103   -1.7913 C   0  0  0  0  0  0  0  0  0  0  0  0
   -8.2921    1.0527    0.7768 O   0  0  0  0  0  0  0  0  0  0  0  0
  1  2  1  0  0  0  0
  1 10  1  0  0  0  0
  2  3  1  0  0  0  0
  3  4  1  0  0  0  0
  3 28  1  0  0  0  0
  4  5  1  0  0  0  0
  5  6  2  0  0  0  0
  5 10  1  0  0  0  0
  6  7  1  0  0  0  0
  7  8  1  0  0  0  0
  8  9  1  0  0  0  0
  8 14  1  0  0  0  0
  9 10  1  0  0  0  0
  9 11  1  0  0  0  0
 10 19  1  0  0  0  0
 11 12  1  0  0  0  0
 12 13  1  0  0  0  0
 13 14  1  0  0  0  0
 13 17  1  0  0  0  0
 13 18  1  0  0  0  0
 14 15  1  0  0  0  0
 15 16  1  0  0  0  0
 16 17  1  0  0  0  0
 17 20  1  0  0  0  0
 20 21  1  0  0  0  0
 20 22  1  0  0  0  0
 22 23  1  0  0  0  0
 23 24  1  0  0  0  0
 24 25  1  0  0  0  0
 25 26  1  0  0  0  0
 25 27  1  0  0  0  0
M  END
$$$$
CLR_2rh1_C_413
  PyMOL2.2          3D                             0

 28 31  0  0  1  0  0  0  0  0999 V2000
   -5.0676   -0.7609    0.1985 C   0  0  0  0  0  0  0  0  0  0  0  0
   -6.5902   -0.5420    0.2659 C   0  0  0  0  0  0  0  0  0  0  0  0
   -6.8887    0.8598    0.7918 C   0  0  3  0  0  0  0  0  0  0  0  0
   -6.2121    1.9337   -0.0674 C   0  0  0  0  0  0  0  0  0  0  0  0
   -4.7171    1.6984   -0.2234 C   0  0  0  0  0  0  0  0  0  0  0  0
   -3.8568    2.7122   -0.0261 C   0  0  0  0  0  0  0  0  0  0  0  0
   -2.3572    2.5801   -0.1531 C   0  0  0  0  0  0  0  0  0  0  0  0
   -1.9059    1.3029   -0.8834 C   0  0  3  0  0  0  0  0  0  0  0  0
   -2.7354    0.0920   -0.3869 C   0  0  3  0  0  0  0  0  0  0  0  0
   -4.2783    0.2859   -0.6430 C   0  0  3  0  0  0  0  0  0  0  0  0
   -2.1635   -1.2649   -0.8847 C   0  0  0  0  0  0  0  0  0  0  0  0
   -0.6408   -1.4022   -0.6873 C   0  0  0  0  0  0  0  0  0  0  0  0
    0.1440   -0.2371   -1.3314 C   0  0  3  0  0  0  0  0  0  0  0  0
   -0.4022    1.0396   -0.6570 C   0  0  3  0  0  0  0  0  0  0  0  0
    0.5764    2.1338   -1.0800 C   0  0  0  0  0  0  0  0  0  0  0  0
    1.9310    1.4122   -1.1023 C   0  0  0  0  0  0  0  0  0  0  0  0
    1.6433   -0.0993   -0.9279 C   0  0  3  0  0  0  0  0  0  0  0  0
   -0.0445   -0.2673   -2.8687 C   0  0  0  0  0  0  0  0  0  0  0  0
   -4.6304    0.1105   -2.1408 C   0  0  0  0  0  0  0  0  0  0  0  0
    2.7852   -1.0159   -1.4806 C   0  0  3  0  0  0  0  0  0  0  0  0
    3.1335   -0.8961   -2.9805 C   0  0  0  0  0  0  0  0  0  0  0  0
    2.6081   -2.5238   -1.1935 C   0  0  0  0  0  0  0  0  0  0  0  0
    2.5223   -2.8822    0.2997 C   0  0  0  0  0  0  0  0  0  0  0  0
    2.3988   -4.4041    0.4806 C   0  0  0  0  0  0  0  0  0  0  0  0
    2.3937   -4.8456    1.9569 C   0  0  0  0  0  0  0  0  0  0  0  0
    1.1654   -4.3320    2.7234 C   0  0  0  0  0  0  0  0  0  0  0  0
    2.4099   -6.3793    2.0224 C   0  0  0  0  0  0  0  0  0  0  0  0
   -8.2885    1.0431    0.7938 O   0  0  0  0  0  0  0  0  0  0  0  0
  1  2  1  0  0  0  0
  1 10  1  0  0  0  0
  2  3  1  0  0  0  0
  3  4  1  0  0  0  0
  3 28  1  0  0  0  0
  4  5  1  0  0  0  0
  5  6  2  0  0  0  0
  5 10  1  0  0  0  0
  6  7  1  0  0  0  0
  7  8  1  0  0  0  0
  8  9  1  0  0  0  0
  8 14  1  0  0  0  0
  9 10  1  0  0  0  0
  9 11  1  0  0  0  0
 10 19  1  0  0  0  0
 11 12  1  0  0  0  0
 12 13  1  0  0  0  0
 13 14  1  0  0  0  0
 13 17  1  0  0  0  0
 13 18  1  0  0  0  0
 14 15  1  0  0  0  0
 15 16  1  0  0  0  0
 16 17  1  0  0  0  0
 17 20  1  0  0  0  0
 20 21  1  0  0  0  0
 20 22  1  0  0  0  0
 22 23  1  0  0  0  0
 23 24  1  0  0  0  0
 24 25  1  0  0  0  0
 25 26  1  0  0  0  0
 25 27  1  0  0  0  0
M  END
$$$$
CLR_2rh1_C_413
  PyMOL2.2          3D                             0

 28 31  0  0  1  0  0  0  0  0999 V2000
   -5.0651   -0.7586    0.2041 C   0  0  0  0  0  0  0  0  0  0  0  0
   -6.5886   -0.5415    0.2667 C   0  0  0  0  0  0  0  0  0  0  0  0
   -6.8894    0.8638    0.7839 C   0  0  3  0  0  0  0  0  0  0  0  0
   -6.2121    1.9322   -0.0821 C   0  0  0  0  0  0  0  0  0  0  0  0
   -4.7173    1.6984   -0.2333 C   0  0  0  0  0  0  0  0  0  0  0  0
   -3.8589    2.7148   -0.0435 C   0  0  0  0  0  0  0  0  0  0  0  0
   -2.3588    2.5842   -0.1672 C   0  0  0  0  0  0  0  0  0  0  0  0
   -1.9019    1.3006   -0.8813 C   0  0  3  0  0  0  0  0  0  0  0  0
   -2.7328    0.0923   -0.3793 C   0  0  3  0  0  0  0  0  0  0  0  0
   -4.2747    0.2832   -0.6409 C   0  0  3  0  0  0  0  0  0  0  0  0
   -2.1593   -1.2668   -0.8683 C   0  0  0  0  0  0  0  0  0  0  0  0
   -0.6368   -1.4046   -0.6732 C   0  0  0  0  0  0  0  0  0  0  0  0
    0.1473   -0.2349   -1.3109 C   0  0  3  0  0  0  0  0  0  0  0  0
   -0.4008    1.0394   -0.6388 C   0  0  3  0  0  0  0  0  0  0  0  0
    0.5797    2.1336   -1.0552 C   0  0  0  0  0  0  0  0  0  0  0  0
    1.9272    1.4003   -1.0949 C   0  0  0  0  0  0  0  0  0  0  0  0
    1.6402   -0.1100   -0.8971 C   0  0  3  0  0  0  0  0  0  0  0  0
   -0.0086   -0.2562   -2.8562 C   0  0  0  0  0  0  0  0  0  0  0  0
   -4.6214    0.0974   -2.1387 C   0  0  0  0  0  0  0  0  0  0  0  0
    2.7213   -0.9961   -1.5816 C   0  0  3  0  0  0  0  0  0  0  0  0
    2.4266   -2.5041   -1.4927 C   0  0  0  0  0  0  0  0  0  0  0  0
    4.1668   -0.6882   -1.0985 C   0  0  0  0  0  0  0  0  0  0  0  0
    4.4652   -0.5722    0.4151 C   0  0  0  0  0  0  0  0  0  0  0  0
    4.2950   -1.8335    1.2815 C   0  0  0  0  0  0  0  0  0  0  0  0
    5.1321   -3.0580    0.8598 C   0  0  0  0  0  0  0  0  0  0  0  0
    6.6412   -2.7894    0.9397 C   0  0  0  0  0  0  0  0  0  0  0  0
    4.7879   -4.2410    1.7741 C   0  0  0  0  0  0  0  0  0  0  0  0
   -8.2895    1.0462    0.7822 O   0  0  0  0  0  0  0  0  0  0  0  0
  1  2  1  0  0  0  0
  1 10  1  0  0  0  0
  2  3  1  0  0  0  0
  3  4  1  0  0  0  0
  3 28  1  0  0  0  0
  4  5  1  0  0  0  0
  5  6  2  0  0  0  0
  5 10  1  0  0  0  0
  6  7  1  0  0  0  0
  7  8  1  0  0  0  0
  8  9  1  0  0  0  0
  8 14  1  0  0  0  0
  9 10  1  0  0  0  0
  9 11  1  0  0  0  0
 10 19  1  0  0  0  0
 11 12  1  0  0  0  0
 12 13  1  0  0  0  0
 13 14  1  0  0  0  0
 13 17  1  0  0  0  0
 13 18  1  0  0  0  0
 14 15  1  0  0  0  0
 15 16  1  0  0  0  0
 16 17  1  0  0  0  0
 17 20  1  0  0  0  0
 20 21  1  0  0  0  0
 20 22  1  0  0  0  0
 22 23  1  0  0  0  0
 23 24  1  0  0  0  0
 24 25  1  0  0  0  0
 25 26  1  0  0  0  0
 25 27  1  0  0  0  0
M  END
$$$$
CLR_2rh1_C_413
  PyMOL2.2          3D                             0

 28 31  0  0  1  0  0  0  0  0999 V2000
   -5.0482   -0.7682    0.1988 C   0  0  0  0  0  0  0  0  0  0  0  0
   -6.5721   -0.5602    0.2626 C   0  0  0  0  0  0  0  0  0  0  0  0
   -6.8814    0.8403    0.7856 C   0  0  3  0  0  0  0  0  0  0  0  0
   -6.2130    1.9169   -0.0768 C   0  0  0  0  0  0  0  0  0  0  0  0
   -4.7151    1.6929   -0.2310 C   0  0  0  0  0  0  0  0  0  0  0  0
   -3.8645    2.7146   -0.0405 C   0  0  0  0  0  0  0  0  0  0  0  0
   -2.3635    2.5956   -0.1654 C   0  0  0  0  0  0  0  0  0  0  0  0
   -1.8998    1.3183   -0.8846 C   0  0  3  0  0  0  0  0  0  0  0  0
   -2.7211    0.1001   -0.3831 C   0  0  3  0  0  0  0  0  0  0  0  0
   -4.2645    0.2818   -0.6437 C   0  0  3  0  0  0  0  0  0  0  0  0
   -2.1430   -1.2647   -0.8608 C   0  0  0  0  0  0  0  0  0  0  0  0
   -0.6138   -1.3924   -0.6977 C   0  0  0  0  0  0  0  0  0  0  0  0
    0.1367   -0.2032   -1.3304 C   0  0  3  0  0  0  0  0  0  0  0  0
   -0.3983    1.0656   -0.6435 C   0  0  3  0  0  0  0  0  0  0  0  0
    0.6024    2.1539   -1.0434 C   0  0  0  0  0  0  0  0  0  0  0  0
    1.9489    1.4117   -1.1223 C   0  0  0  0  0  0  0  0  0  0  0  0
    1.6251   -0.0859   -0.9153 C   0  0  3  0  0  0  0  0  0  0  0  0
   -0.0535   -0.2230   -2.8694 C   0  0  0  0  0  0  0  0  0  0  0  0
   -4.6117    0.0994   -2.1417 C   0  0  0  0  0  0  0  0  0  0  0  0
    2.6397   -1.1222   -1.4854 C   0  0  3  0  0  0  0  0  0  0  0  0
    3.7820   -1.3077   -0.4659 C   0  0  0  0  0  0  0  0  0  0  0  0
    3.2612   -0.7771   -2.8639 C   0  0  0  0  0  0  0  0  0  0  0  0
    3.9052   -1.9535   -3.6243 C   0  0  0  0  0  0  0  0  0  0  0  0
    2.8665   -2.9469   -4.1776 C   0  0  0  0  0  0  0  0  0  0  0  0
    3.4956   -4.1503   -4.9071 C   0  0  0  0  0  0  0  0  0  0  0  0
    2.3885   -5.1426   -5.2874 C   0  0  0  0  0  0  0  0  0  0  0  0
    4.2502   -3.7435   -6.1813 C   0  0  0  0  0  0  0  0  0  0  0  0
   -8.2827    1.0143    0.7860 O   0  0  0  0  0  0  0  0  0  0  0  0
  1  2  1  0  0  0  0
  1 10  1  0  0  0  0
  2  3  1  0  0  0  0
  3  4  1  0  0  0  0
  3 28  1  0  0  0  0
  4  5  1  0  0  0  0
  5  6  2  0  0  0  0
  5 10  1  0  0  0  0
  6  7  1  0  0  0  0
  7  8  1  0  0  0  0
  8  9  1  0  0  0  0
  8 14  1  0  0  0  0
  9 10  1  0  0  0  0
  9 11  1  0  0  0  0
 10 19  1  0  0  0  0
 11 12  1  0  0  0  0
 12 13  1  0  0  0  0
 13 14  1  0  0  0  0
 13 17  1  0  0  0  0
 13 18  1  0  0  0  0
 14 15  1  0  0  0  0
 15 16  1  0  0  0  0
 16 17  1  0  0  0  0
 17 20  1  0  0  0  0
 20 21  1  0  0  0  0
 20 22  1  0  0  0  0
 22 23  1  0  0  0  0
 23 24  1  0  0  0  0
 24 25  1  0  0  0  0
 25 26  1  0  0  0  0
 25 27  1  0  0  0  0
M  END
$$$$
CLR_2rh1_C_413
  PyMOL2.2          3D                             0

 28 31  0  0  1  0  0  0  0  0999 V2000
   -5.0654   -0.7586    0.2051 C   0  0  0  0  0  0  0  0  0  0  0  0
   -6.5886   -0.5412    0.2672 C   0  0  0  0  0  0  0  0  0  0  0  0
   -6.8893    0.8636    0.7838 C   0  0  3  0  0  0  0  0  0  0  0  0
   -6.2126    1.9321   -0.0821 C   0  0  0  0  0  0  0  0  0  0  0  0
   -4.7171    1.6987   -0.2343 C   0  0  0  0  0  0  0  0  0  0  0  0
   -3.8591    2.7149   -0.0455 C   0  0  0  0  0  0  0  0  0  0  0  0
   -2.3593    2.5851   -0.1696 C   0  0  0  0  0  0  0  0  0  0  0  0
   -1.9022    1.2997   -0.8827 C   0  0  3  0  0  0  0  0  0  0  0  0
   -2.7330    0.0932   -0.3784 C   0  0  3  0  0  0  0  0  0  0  0  0
   -4.2745    0.2835   -0.6412 C   0  0  3  0  0  0  0  0  0  0  0  0
   -2.1589   -1.2657   -0.8659 C   0  0  0  0  0  0  0  0  0  0  0  0
   -0.6355   -1.4032   -0.6711 C   0  0  0  0  0  0  0  0  0  0  0  0
    0.1480   -0.2346   -1.3117 C   0  0  3  0  0  0  0  0  0  0  0  0
   -0.4013    1.0391   -0.6391 C   0  0  3  0  0  0  0  0  0  0  0  0
    0.5795    2.1344   -1.0540 C   0  0  0  0  0  0  0  0  0  0  0  0
    1.9265    1.4005   -1.0812 C   0  0  0  0  0  0  0  0  0  0  0  0
    1.6411   -0.1100   -0.9003 C   0  0  3  0  0  0  0  0  0  0  0  0
   -0.0090   -0.2597   -2.8563 C   0  0  0  0  0  0  0  0  0  0  0  0
   -4.6216    0.0968   -2.1385 C   0  0  0  0  0  0  0  0  0  0  0  0
    2.7215   -0.9969   -1.5919 C   0  0  3  0  0  0  0  0  0  0  0  0
    2.4488   -2.5073   -1.4794 C   0  0  0  0  0  0  0  0  0  0  0  0
    4.1807   -0.7049   -1.1472 C   0  0  0  0  0  0  0  0  0  0  0  0
    4.7370   -1.3305    0.1517 C   0  0  0  0  0  0  0  0  0  0  0  0
    4.0085   -0.9228    1.4431 C   0  0  0  0  0  0  0  0  0  0  0  0
    4.7220   -1.3790    2.7306 C   0  0  0  0  0  0  0  0  0  0  0  0
    6.0413   -0.6303    2.9761 C   0  0  0  0  0  0  0  0  0  0  0  0
    3.7951   -1.1348    3.9294 C   0  0  0  0  0  0  0  0  0  0  0  0
   -8.2887    1.0464    0.7826 O   0  0  0  0  0  0  0  0  0  0  0  0
  1  2  1  0  0  0  0
  1 10  1  0  0  0  0
  2  3  1  0  0  0  0
  3  4  1  0  0  0  0
  3 28  1  0  0  0  0
  4  5  1  0  0  0  0
  5  6  2  0  0  0  0
  5 10  1  0  0  0  0
  6  7  1  0  0  0  0
  7  8  1  0  0  0  0
  8  9  1  0  0  0  0
  8 14  1  0  0  0  0
  9 10  1  0  0  0  0
  9 11  1  0  0  0  0
 10 19  1  0  0  0  0
 11 12  1  0  0  0  0
 12 13  1  0  0  0  0
 13 14  1  0  0  0  0
 13 17  1  0  0  0  0
 13 18  1  0  0  0  0
 14 15  1  0  0  0  0
 15 16  1  0  0  0  0
 16 17  1  0  0  0  0
 17 20  1  0  0  0  0
 20 21  1  0  0  0  0
 20 22  1  0  0  0  0
 22 23  1  0  0  0  0
 23 24  1  0  0  0  0
 24 25  1  0  0  0  0
 25 26  1  0  0  0  0
 25 27  1  0  0  0  0
M  END
$$$$
CLR_2rh1_C_413
  PyMOL2.2          3D                             0

 28 31  0  0  1  0  0  0  0  0999 V2000
   -5.1072   -0.7311    0.1924 C   0  0  0  0  0  0  0  0  0  0  0  0
   -6.6271   -0.4879    0.2391 C   0  0  0  0  0  0  0  0  0  0  0  0
   -6.9093    0.9238    0.7493 C   0  0  3  0  0  0  0  0  0  0  0  0
   -6.2058    1.9784   -0.1118 C   0  0  0  0  0  0  0  0  0  0  0  0
   -4.7130    1.7191   -0.2469 C   0  0  0  0  0  0  0  0  0  0  0  0
   -3.8407    2.7211   -0.0515 C   0  0  0  0  0  0  0  0  0  0  0  0
   -2.3416    2.5651   -0.1583 C   0  0  0  0  0  0  0  0  0  0  0  0
   -1.8987    1.2727   -0.8665 C   0  0  3  0  0  0  0  0  0  0  0  0
   -2.7551    0.0801   -0.3698 C   0  0  3  0  0  0  0  0  0  0  0  0
   -4.2905    0.2961   -0.6474 C   0  0  3  0  0  0  0  0  0  0  0  0
   -2.1987   -1.2890   -0.8520 C   0  0  0  0  0  0  0  0  0  0  0  0
   -0.6809   -1.4513   -0.6405 C   0  0  0  0  0  0  0  0  0  0  0  0
    0.1301   -0.2973   -1.2741 C   0  0  3  0  0  0  0  0  0  0  0  0
   -0.4045    0.9863   -0.6099 C   0  0  3  0  0  0  0  0  0  0  0  0
    0.5953    2.0629   -1.0260 C   0  0  0  0  0  0  0  0  0  0  0  0
    1.9318    1.3102   -1.0199 C   0  0  0  0  0  0  0  0  0  0  0  0
    1.6237   -0.1995   -0.8508 C   0  0  3  0  0  0  0  0  0  0  0  0
   -0.0126   -0.3191   -2.8203 C   0  0  0  0  0  0  0  0  0  0  0  0
   -4.6274    0.1121   -2.1480 C   0  0  0  0  0  0  0  0  0  0  0  0
    2.6938   -1.0880   -1.5522 C   0  0  3  0  0  0  0  0  0  0  0  0
    2.3724   -2.5916   -1.4543 C   0  0  0  0  0  0  0  0  0  0  0  0
    4.1122   -0.8598   -0.9588 C   0  0  0  0  0  0  0  0  0  0  0  0
    5.2075   -0.6422   -2.0186 C   0  0  0  0  0  0  0  0  0  0  0  0
    5.4611   -1.8750   -2.9035 C   0  0  0  0  0  0  0  0  0  0  0  0
    6.6765   -1.7163   -3.8379 C   0  0  0  0  0  0  0  0  0  0  0  0
    6.9206   -3.0389   -4.5750 C   0  0  0  0  0  0  0  0  0  0  0  0
    6.4782   -0.6005   -4.8753 C   0  0  0  0  0  0  0  0  0  0  0  0
   -8.3063    1.1289    0.7334 O   0  0  0  0  0  0  0  0  0  0  0  0
  1  2  1  0  0  0  0
  1 10  1  0  0  0  0
  2  3  1  0  0  0  0
  3  4  1  0  0  0  0
  3 28  1  0  0  0  0
  4  5  1  0  0  0  0
  5  6  2  0  0  0  0
  5 10  1  0  0  0  0
  6  7  1  0  0  0  0
  7  8  1  0  0  0  0
  8  9  1  0  0  0  0
  8 14  1  0  0  0  0
  9 10  1  0  0  0  0
  9 11  1  0  0  0  0
 10 19  1  0  0  0  0
 11 12  1  0  0  0  0
 12 13  1  0  0  0  0
 13 14  1  0  0  0  0
 13 17  1  0  0  0  0
 13 18  1  0  0  0  0
 14 15  1  0  0  0  0
 15 16  1  0  0  0  0
 16 17  1  0  0  0  0
 17 20  1  0  0  0  0
 20 21  1  0  0  0  0
 20 22  1  0  0  0  0
 22 23  1  0  0  0  0
 23 24  1  0  0  0  0
 24 25  1  0  0  0  0
 25 26  1  0  0  0  0
 25 27  1  0  0  0  0
M  END
$$$$
CLR_2rh1_C_413
  PyMOL2.2          3D                             0

 28 31  0  0  1  0  0  0  0  0999 V2000
   -5.0913   -0.7465    0.1983 C   0  0  0  0  0  0  0  0  0  0  0  0
   -6.6126   -0.5143    0.2562 C   0  0  0  0  0  0  0  0  0  0  0  0
   -6.9017    0.8915    0.7773 C   0  0  3  0  0  0  0  0  0  0  0  0
   -6.2122    1.9564   -0.0834 C   0  0  0  0  0  0  0  0  0  0  0  0
   -4.7182    1.7089   -0.2309 C   0  0  0  0  0  0  0  0  0  0  0  0
   -3.8502    2.7151   -0.0363 C   0  0  0  0  0  0  0  0  0  0  0  0
   -2.3515    2.5709   -0.1553 C   0  0  0  0  0  0  0  0  0  0  0  0
   -1.9047    1.2847   -0.8738 C   0  0  3  0  0  0  0  0  0  0  0  0
   -2.7489    0.0851   -0.3765 C   0  0  3  0  0  0  0  0  0  0  0  0
   -4.2877    0.2909   -0.6422 C   0  0  3  0  0  0  0  0  0  0  0  0
   -2.1862   -1.2769   -0.8687 C   0  0  0  0  0  0  0  0  0  0  0  0
   -0.6639   -1.4283   -0.6740 C   0  0  0  0  0  0  0  0  0  0  0  0
    0.1355   -0.2665   -1.3103 C   0  0  3  0  0  0  0  0  0  0  0  0
   -0.4068    1.0066   -0.6288 C   0  0  3  0  0  0  0  0  0  0  0  0
    0.5782    2.1004   -1.0302 C   0  0  0  0  0  0  0  0  0  0  0  0
    1.9179    1.3569   -1.0919 C   0  0  0  0  0  0  0  0  0  0  0  0
    1.6341   -0.1516   -0.9049 C   0  0  3  0  0  0  0  0  0  0  0  0
   -0.0195   -0.2798   -2.8550 C   0  0  0  0  0  0  0  0  0  0  0  0
   -4.6336    0.1124   -2.1413 C   0  0  0  0  0  0  0  0  0  0  0  0
    2.7176   -1.0469   -1.5839 C   0  0  3  0  0  0  0  0  0  0  0  0
    2.3840   -2.5458   -1.4683 C   0  0  0  0  0  0  0  0  0  0  0  0
    4.1282   -0.8433   -0.9636 C   0  0  0  0  0  0  0  0  0  0  0  0
    4.9906    0.2197   -1.6696 C   0  0  0  0  0  0  0  0  0  0  0  0
    6.4036    0.2567   -1.0571 C   0  0  0  0  0  0  0  0  0  0  0  0
    7.3700    1.2946   -1.6634 C   0  0  0  0  0  0  0  0  0  0  0  0
    7.6354    1.0437   -3.1543 C   0  0  0  0  0  0  0  0  0  0  0  0
    6.8809    2.7358   -1.4631 C   0  0  0  0  0  0  0  0  0  0  0  0
   -8.2988    1.0878    0.7721 O   0  0  0  0  0  0  0  0  0  0  0  0
  1  2  1  0  0  0  0
  1 10  1  0  0  0  0
  2  3  1  0  0  0  0
  3  4  1  0  0  0  0
  3 28  1  0  0  0  0
  4  5  1  0  0  0  0
  5  6  2  0  0  0  0
  5 10  1  0  0  0  0
  6  7  1  0  0  0  0
  7  8  1  0  0  0  0
  8  9  1  0  0  0  0
  8 14  1  0  0  0  0
  9 10  1  0  0  0  0
  9 11  1  0  0  0  0
 10 19  1  0  0  0  0
 11 12  1  0  0  0  0
 12 13  1  0  0  0  0
 13 14  1  0  0  0  0
 13 17  1  0  0  0  0
 13 18  1  0  0  0  0
 14 15  1  0  0  0  0
 15 16  1  0  0  0  0
 16 17  1  0  0  0  0
 17 20  1  0  0  0  0
 20 21  1  0  0  0  0
 20 22  1  0  0  0  0
 22 23  1  0  0  0  0
 23 24  1  0  0  0  0
 24 25  1  0  0  0  0
 25 26  1  0  0  0  0
 25 27  1  0  0  0  0
M  END
$$$$
CLR_2rh1_C_413
  PyMOL2.2          3D                             0

 28 31  0  0  1  0  0  0  0  0999 V2000
   -5.0640   -0.7595    0.2036 C   0  0  0  0  0  0  0  0  0  0  0  0
   -6.5872   -0.5420    0.2679 C   0  0  0  0  0  0  0  0  0  0  0  0
   -6.8878    0.8617    0.7864 C   0  0  3  0  0  0  0  0  0  0  0  0
   -6.2128    1.9317   -0.0790 C   0  0  0  0  0  0  0  0  0  0  0  0
   -4.7160    1.6977   -0.2320 C   0  0  0  0  0  0  0  0  0  0  0  0
   -3.8585    2.7143   -0.0435 C   0  0  0  0  0  0  0  0  0  0  0  0
   -2.3594    2.5853   -0.1685 C   0  0  0  0  0  0  0  0  0  0  0  0
   -1.9025    1.3011   -0.8831 C   0  0  3  0  0  0  0  0  0  0  0  0
   -2.7325    0.0932   -0.3809 C   0  0  3  0  0  0  0  0  0  0  0  0
   -4.2744    0.2833   -0.6415 C   0  0  3  0  0  0  0  0  0  0  0  0
   -2.1594   -1.2660   -0.8723 C   0  0  0  0  0  0  0  0  0  0  0  0
   -0.6358   -1.4047   -0.6786 C   0  0  0  0  0  0  0  0  0  0  0  0
    0.1462   -0.2331   -1.3116 C   0  0  3  0  0  0  0  0  0  0  0  0
   -0.4009    1.0409   -0.6403 C   0  0  3  0  0  0  0  0  0  0  0  0
    0.5808    2.1349   -1.0572 C   0  0  0  0  0  0  0  0  0  0  0  0
    1.9275    1.4001   -1.0974 C   0  0  0  0  0  0  0  0  0  0  0  0
    1.6380   -0.1074   -0.8938 C   0  0  3  0  0  0  0  0  0  0  0  0
   -0.0057   -0.2557   -2.8571 C   0  0  0  0  0  0  0  0  0  0  0  0
   -4.6228    0.0985   -2.1387 C   0  0  0  0  0  0  0  0  0  0  0  0
    2.7164   -1.0025   -1.5706 C   0  0  3  0  0  0  0  0  0  0  0  0
    2.4160   -2.5105   -1.4682 C   0  0  0  0  0  0  0  0  0  0  0  0
    4.1591   -0.6945   -1.0872 C   0  0  0  0  0  0  0  0  0  0  0  0
    4.4596   -0.5797    0.4234 C   0  0  0  0  0  0  0  0  0  0  0  0
    4.1942   -1.8546    1.2430 C   0  0  0  0  0  0  0  0  0  0  0  0
    4.7085   -1.8369    2.6974 C   0  0  0  0  0  0  0  0  0  0  0  0
    6.2405   -1.7781    2.7810 C   0  0  0  0  0  0  0  0  0  0  0  0
    4.1025   -0.6868    3.5134 C   0  0  0  0  0  0  0  0  0  0  0  0
   -8.2881    1.0444    0.7868 O   0  0  0  0  0  0  0  0  0  0  0  0
  1  2  1  0  0  0  0
  1 10  1  0  0  0  0
  2  3  1  0  0  0  0
  3  4  1  0  0  0  0
  3 28  1  0  0  0  0
  4  5  1  0  0  0  0
  5  6  2  0  0  0  0
  5 10  1  0  0  0  0
  6  7  1  0  0  0  0
  7  8  1  0  0  0  0
  8  9  1  0  0  0  0
  8 14  1  0  0  0  0
  9 10  1  0  0  0  0
  9 11  1  0  0  0  0
 10 19  1  0  0  0  0
 11 12  1  0  0  0  0
 12 13  1  0  0  0  0
 13 14  1  0  0  0  0
 13 17  1  0  0  0  0
 13 18  1  0  0  0  0
 14 15  1  0  0  0  0
 15 16  1  0  0  0  0
 16 17  1  0  0  0  0
 17 20  1  0  0  0  0
 20 21  1  0  0  0  0
 20 22  1  0  0  0  0
 22 23  1  0  0  0  0
 23 24  1  0  0  0  0
 24 25  1  0  0  0  0
 25 26  1  0  0  0  0
 25 27  1  0  0  0  0
M  END
$$$$
CLR_2rh1_C_413
  PyMOL2.2          3D                             0

 28 31  0  0  1  0  0  0  0  0999 V2000
   -5.0686   -0.7570    0.2075 C   0  0  0  0  0  0  0  0  0  0  0  0
   -6.5917   -0.5376    0.2665 C   0  0  0  0  0  0  0  0  0  0  0  0
   -6.8923    0.8680    0.7808 C   0  0  3  0  0  0  0  0  0  0  0  0
   -6.2141    1.9348   -0.0860 C   0  0  0  0  0  0  0  0  0  0  0  0
   -4.7175    1.6992   -0.2353 C   0  0  0  0  0  0  0  0  0  0  0  0
   -3.8592    2.7153   -0.0462 C   0  0  0  0  0  0  0  0  0  0  0  0
   -2.3592    2.5828   -0.1673 C   0  0  0  0  0  0  0  0  0  0  0  0
   -1.9025    1.2973   -0.8792 C   0  0  3  0  0  0  0  0  0  0  0  0
   -2.7351    0.0923   -0.3758 C   0  0  3  0  0  0  0  0  0  0  0  0
   -4.2764    0.2830   -0.6403 C   0  0  3  0  0  0  0  0  0  0  0  0
   -2.1601   -1.2657   -0.8635 C   0  0  0  0  0  0  0  0  0  0  0  0
   -0.6374   -1.4021   -0.6663 C   0  0  0  0  0  0  0  0  0  0  0  0
    0.1525   -0.2381   -1.3104 C   0  0  3  0  0  0  0  0  0  0  0  0
   -0.4016    1.0344   -0.6370 C   0  0  3  0  0  0  0  0  0  0  0  0
    0.5716    2.1322   -1.0535 C   0  0  0  0  0  0  0  0  0  0  0  0
    1.9194    1.4035   -1.0738 C   0  0  0  0  0  0  0  0  0  0  0  0
    1.6528   -0.1112   -0.9084 C   0  0  3  0  0  0  0  0  0  0  0  0
   -0.0045   -0.2599   -2.8546 C   0  0  0  0  0  0  0  0  0  0  0  0
   -4.6224    0.0944   -2.1371 C   0  0  0  0  0  0  0  0  0  0  0  0
    2.7356   -0.9938   -1.6080 C   0  0  3  0  0  0  0  0  0  0  0  0
    2.4172   -2.4963   -1.4771 C   0  0  0  0  0  0  0  0  0  0  0  0
    4.1626   -0.7949   -1.0222 C   0  0  0  0  0  0  0  0  0  0  0  0
    5.0031    0.3993   -1.5250 C   0  0  0  0  0  0  0  0  0  0  0  0
    5.1586    0.5207   -3.0544 C   0  0  0  0  0  0  0  0  0  0  0  0
    5.6951   -0.7330   -3.7753 C   0  0  0  0  0  0  0  0  0  0  0  0
    5.7270   -0.4708   -5.2863 C   0  0  0  0  0  0  0  0  0  0  0  0
    7.1070   -1.1146   -3.3063 C   0  0  0  0  0  0  0  0  0  0  0  0
   -8.2915    1.0518    0.7767 O   0  0  0  0  0  0  0  0  0  0  0  0
  1  2  1  0  0  0  0
  1 10  1  0  0  0  0
  2  3  1  0  0  0  0
  3  4  1  0  0  0  0
  3 28  1  0  0  0  0
  4  5  1  0  0  0  0
  5  6  2  0  0  0  0
  5 10  1  0  0  0  0
  6  7  1  0  0  0  0
  7  8  1  0  0  0  0
  8  9  1  0  0  0  0
  8 14  1  0  0  0  0
  9 10  1  0  0  0  0
  9 11  1  0  0  0  0
 10 19  1  0  0  0  0
 11 12  1  0  0  0  0
 12 13  1  0  0  0  0
 13 14  1  0  0  0  0
 13 17  1  0  0  0  0
 13 18  1  0  0  0  0
 14 15  1  0  0  0  0
 15 16  1  0  0  0  0
 16 17  1  0  0  0  0
 17 20  1  0  0  0  0
 20 21  1  0  0  0  0
 20 22  1  0  0  0  0
 22 23  1  0  0  0  0
 23 24  1  0  0  0  0
 24 25  1  0  0  0  0
 25 26  1  0  0  0  0
 25 27  1  0  0  0  0
M  END
$$$$
CLR_2rh1_C_413
  PyMOL2.2          3D                             0

 28 31  0  0  1  0  0  0  0  0999 V2000
   -5.0675   -0.7574    0.2068 C   0  0  0  0  0  0  0  0  0  0  0  0
   -6.5907   -0.5391    0.2666 C   0  0  0  0  0  0  0  0  0  0  0  0
   -6.8914    0.8673    0.7808 C   0  0  3  0  0  0  0  0  0  0  0  0
   -6.2135    1.9342   -0.0856 C   0  0  0  0  0  0  0  0  0  0  0  0
   -4.7171    1.6991   -0.2352 C   0  0  0  0  0  0  0  0  0  0  0  0
   -3.8595    2.7149   -0.0466 C   0  0  0  0  0  0  0  0  0  0  0  0
   -2.3584    2.5834   -0.1679 C   0  0  0  0  0  0  0  0  0  0  0  0
   -1.9024    1.2981   -0.8803 C   0  0  3  0  0  0  0  0  0  0  0  0
   -2.7339    0.0928   -0.3765 C   0  0  3  0  0  0  0  0  0  0  0  0
   -4.2756    0.2828   -0.6403 C   0  0  3  0  0  0  0  0  0  0  0  0
   -2.1594   -1.2662   -0.8642 C   0  0  0  0  0  0  0  0  0  0  0  0
   -0.6365   -1.4034   -0.6666 C   0  0  0  0  0  0  0  0  0  0  0  0
    0.1506   -0.2377   -1.3077 C   0  0  3  0  0  0  0  0  0  0  0  0
   -0.4009    1.0367   -0.6372 C   0  0  3  0  0  0  0  0  0  0  0  0
    0.5746    2.1323   -1.0577 C   0  0  0  0  0  0  0  0  0  0  0  0
    1.9235    1.4035   -1.0706 C   0  0  0  0  0  0  0  0  0  0  0  0
    1.6482   -0.1134   -0.9031 C   0  0  3  0  0  0  0  0  0  0  0  0
   -0.0048   -0.2614   -2.8527 C   0  0  0  0  0  0  0  0  0  0  0  0
   -4.6216    0.0947   -2.1379 C   0  0  0  0  0  0  0  0  0  0  0  0
    2.7258   -0.9898   -1.6121 C   0  0  3  0  0  0  0  0  0  0  0  0
    2.4220   -2.4942   -1.4685 C   0  0  0  0  0  0  0  0  0  0  0  0
    4.1402   -0.7135   -1.0376 C   0  0  0  0  0  0  0  0  0  0  0  0
    5.3273   -1.2027   -1.8973 C   0  0  0  0  0  0  0  0  0  0  0  0
    5.9305   -0.1322   -2.8292 C   0  0  0  0  0  0  0  0  0  0  0  0
    5.0246    0.3879   -3.9623 C   0  0  0  0  0  0  0  0  0  0  0  0
    5.7527    1.5066   -4.7177 C   0  0  0  0  0  0  0  0  0  0  0  0
    4.6506   -0.7165   -4.9623 C   0  0  0  0  0  0  0  0  0  0  0  0
   -8.2910    1.0504    0.7776 O   0  0  0  0  0  0  0  0  0  0  0  0
  1  2  1  0  0  0  0
  1 10  1  0  0  0  0
  2  3  1  0  0  0  0
  3  4  1  0  0  0  0
  3 28  1  0  0  0  0
  4  5  1  0  0  0  0
  5  6  2  0  0  0  0
  5 10  1  0  0  0  0
  6  7  1  0  0  0  0
  7  8  1  0  0  0  0
  8  9  1  0  0  0  0
  8 14  1  0  0  0  0
  9 10  1  0  0  0  0
  9 11  1  0  0  0  0
 10 19  1  0  0  0  0
 11 12  1  0  0  0  0
 12 13  1  0  0  0  0
 13 14  1  0  0  0  0
 13 17  1  0  0  0  0
 13 18  1  0  0  0  0
 14 15  1  0  0  0  0
 15 16  1  0  0  0  0
 16 17  1  0  0  0  0
 17 20  1  0  0  0  0
 20 21  1  0  0  0  0
 20 22  1  0  0  0  0
 22 23  1  0  0  0  0
 23 24  1  0  0  0  0
 24 25  1  0  0  0  0
 25 26  1  0  0  0  0
 25 27  1  0  0  0  0
M  END
$$$$
CLR_2rh1_C_413
  PyMOL2.2          3D                             0

 28 31  0  0  1  0  0  0  0  0999 V2000
   -5.0692   -0.7565    0.2068 C   0  0  0  0  0  0  0  0  0  0  0  0
   -6.5918   -0.5375    0.2664 C   0  0  0  0  0  0  0  0  0  0  0  0
   -6.8925    0.8686    0.7803 C   0  0  3  0  0  0  0  0  0  0  0  0
   -6.2136    1.9355   -0.0868 C   0  0  0  0  0  0  0  0  0  0  0  0
   -4.7181    1.6998   -0.2348 C   0  0  0  0  0  0  0  0  0  0  0  0
   -3.8587    2.7142   -0.0470 C   0  0  0  0  0  0  0  0  0  0  0  0
   -2.3582    2.5827   -0.1677 C   0  0  0  0  0  0  0  0  0  0  0  0
   -1.9025    1.2973   -0.8800 C   0  0  3  0  0  0  0  0  0  0  0  0
   -2.7348    0.0922   -0.3753 C   0  0  3  0  0  0  0  0  0  0  0  0
   -4.2761    0.2829   -0.6404 C   0  0  3  0  0  0  0  0  0  0  0  0
   -2.1606   -1.2674   -0.8623 C   0  0  0  0  0  0  0  0  0  0  0  0
   -0.6379   -1.4037   -0.6641 C   0  0  0  0  0  0  0  0  0  0  0  0
    0.1509   -0.2397   -1.3095 C   0  0  3  0  0  0  0  0  0  0  0  0
   -0.4014    1.0347   -0.6367 C   0  0  3  0  0  0  0  0  0  0  0  0
    0.5737    2.1306   -1.0561 C   0  0  0  0  0  0  0  0  0  0  0  0
    1.9232    1.4022   -1.0700 C   0  0  0  0  0  0  0  0  0  0  0  0
    1.6489   -0.1147   -0.9064 C   0  0  3  0  0  0  0  0  0  0  0  0
   -0.0069   -0.2612   -2.8541 C   0  0  0  0  0  0  0  0  0  0  0  0
   -4.6221    0.0945   -2.1369 C   0  0  0  0  0  0  0  0  0  0  0  0
    2.7369   -0.9825   -1.6135 C   0  0  3  0  0  0  0  0  0  0  0  0
    2.4357   -2.4893   -1.5030 C   0  0  0  0  0  0  0  0  0  0  0  0
    4.1363   -0.6921   -1.0113 C   0  0  0  0  0  0  0  0  0  0  0  0
    5.3155   -1.2922   -1.8045 C   0  0  0  0  0  0  0  0  0  0  0  0
    6.6909   -0.8467   -1.2681 C   0  0  0  0  0  0  0  0  0  0  0  0
    7.3671   -1.8367   -0.2983 C   0  0  0  0  0  0  0  0  0  0  0  0
    8.7467   -1.2904    0.0927 C   0  0  0  0  0  0  0  0  0  0  0  0
    6.5572   -2.0916    0.9802 C   0  0  0  0  0  0  0  0  0  0  0  0
   -8.2923    1.0523    0.7764 O   0  0  0  0  0  0  0  0  0  0  0  0
  1  2  1  0  0  0  0
  1 10  1  0  0  0  0
  2  3  1  0  0  0  0
  3  4  1  0  0  0  0
  3 28  1  0  0  0  0
  4  5  1  0  0  0  0
  5  6  2  0  0  0  0
  5 10  1  0  0  0  0
  6  7  1  0  0  0  0
  7  8  1  0  0  0  0
  8  9  1  0  0  0  0
  8 14  1  0  0  0  0
  9 10  1  0  0  0  0
  9 11  1  0  0  0  0
 10 19  1  0  0  0  0
 11 12  1  0  0  0  0
 12 13  1  0  0  0  0
 13 14  1  0  0  0  0
 13 17  1  0  0  0  0
 13 18  1  0  0  0  0
 14 15  1  0  0  0  0
 15 16  1  0  0  0  0
 16 17  1  0  0  0  0
 17 20  1  0  0  0  0
 20 21  1  0  0  0  0
 20 22  1  0  0  0  0
 22 23  1  0  0  0  0
 23 24  1  0  0  0  0
 24 25  1  0  0  0  0
 25 26  1  0  0  0  0
 25 27  1  0  0  0  0
M  END
$$$$
CLR_2rh1_C_413
  PyMOL2.2          3D                             0

 28 31  0  0  1  0  0  0  0  0999 V2000
   -5.0975   -0.7806    0.1265 C   0  0  0  0  0  0  0  0  0  0  0  0
   -6.6226   -0.5719    0.1540 C   0  0  0  0  0  0  0  0  0  0  0  0
   -6.9416    0.8268    0.6769 C   0  0  3  0  0  0  0  0  0  0  0  0
   -6.2432    1.9136   -0.1482 C   0  0  0  0  0  0  0  0  0  0  0  0
   -4.7450    1.6795   -0.2796 C   0  0  0  0  0  0  0  0  0  0  0  0
   -3.8920    2.6951   -0.0654 C   0  0  0  0  0  0  0  0  0  0  0  0
   -2.3900    2.5683   -0.1646 C   0  0  0  0  0  0  0  0  0  0  0  0
   -1.9190    1.2926   -0.8861 C   0  0  3  0  0  0  0  0  0  0  0  0
   -2.7564    0.0786   -0.4109 C   0  0  3  0  0  0  0  0  0  0  0  0
   -4.2943    0.2702   -0.6959 C   0  0  3  0  0  0  0  0  0  0  0  0
   -2.1725   -1.2743   -0.9051 C   0  0  0  0  0  0  0  0  0  0  0  0
   -0.6523   -1.4117   -0.6914 C   0  0  0  0  0  0  0  0  0  0  0  0
    0.1374   -0.2336   -1.3057 C   0  0  3  0  0  0  0  0  0  0  0  0
   -0.4219    1.0315   -0.6225 C   0  0  3  0  0  0  0  0  0  0  0  0
    0.5629    2.1337   -1.0063 C   0  0  0  0  0  0  0  0  0  0  0  0
    1.9123    1.4029   -1.0326 C   0  0  0  0  0  0  0  0  0  0  0  0
    1.6261   -0.1101   -0.8761 C   0  0  3  0  0  0  0  0  0  0  0  0
    0.0023   -0.2403   -2.8516 C   0  0  0  0  0  0  0  0  0  0  0  0
   -4.6162    0.1007   -2.2014 C   0  0  0  0  0  0  0  0  0  0  0  0
    2.7150   -0.9803   -1.5732 C   0  0  3  0  0  0  0  0  0  0  0  0
    2.4649   -2.4895   -1.4101 C   0  0  0  0  0  0  0  0  0  0  0  0
    4.1579   -0.6570   -1.1083 C   0  0  0  0  0  0  0  0  0  0  0  0
    4.4602   -0.9209    0.3793 C   0  0  0  0  0  0  0  0  0  0  0  0
    5.8556   -0.4551    0.8359 C   0  0  0  0  0  0  0  0  0  0  0  0
    7.0439   -1.1593    0.1431 C   0  0  0  0  0  0  0  0  0  0  0  0
    7.5906   -0.3412   -1.0391 C   0  0  0  0  0  0  0  0  0  0  0  0
    8.1926   -1.3612    1.1419 C   0  0  0  0  0  0  0  0  0  0  0  0
   -8.3400    1.0111    0.6450 O   0  0  0  0  0  0  0  0  0  0  0  0
  1  2  1  0  0  0  0
  1 10  1  0  0  0  0
  2  3  1  0  0  0  0
  3  4  1  0  0  0  0
  3 28  1  0  0  0  0
  4  5  1  0  0  0  0
  5  6  2  0  0  0  0
  5 10  1  0  0  0  0
  6  7  1  0  0  0  0
  7  8  1  0  0  0  0
  8  9  1  0  0  0  0
  8 14  1  0  0  0  0
  9 10  1  0  0  0  0
  9 11  1  0  0  0  0
 10 19  1  0  0  0  0
 11 12  1  0  0  0  0
 12 13  1  0  0  0  0
 13 14  1  0  0  0  0
 13 17  1  0  0  0  0
 13 18  1  0  0  0  0
 14 15  1  0  0  0  0
 15 16  1  0  0  0  0
 16 17  1  0  0  0  0
 17 20  1  0  0  0  0
 20 21  1  0  0  0  0
 20 22  1  0  0  0  0
 22 23  1  0  0  0  0
 23 24  1  0  0  0  0
 24 25  1  0  0  0  0
 25 26  1  0  0  0  0
 25 27  1  0  0  0  0
M  END
$$$$
CLR_2rh1_C_413
  PyMOL2.2          3D                             0

 28 31  0  0  1  0  0  0  0  0999 V2000
   -5.0481   -0.7284    0.2646 C   0  0  0  0  0  0  0  0  0  0  0  0
   -6.5678   -0.4989    0.3575 C   0  0  0  0  0  0  0  0  0  0  0  0
   -6.8481    0.9064    0.8862 C   0  0  3  0  0  0  0  0  0  0  0  0
   -6.1800    1.9730    0.0128 C   0  0  0  0  0  0  0  0  0  0  0  0
   -4.6883    1.7280   -0.1677 C   0  0  0  0  0  0  0  0  0  0  0  0
   -3.8188    2.7360    0.0114 C   0  0  0  0  0  0  0  0  0  0  0  0
   -2.3225    2.5945   -0.1403 C   0  0  0  0  0  0  0  0  0  0  0  0
   -1.8908    1.3126   -0.8742 C   0  0  3  0  0  0  0  0  0  0  0  0
   -2.7211    0.1083   -0.3605 C   0  0  3  0  0  0  0  0  0  0  0  0
   -4.2658    0.3118   -0.5913 C   0  0  3  0  0  0  0  0  0  0  0  0
   -2.1671   -1.2539   -0.8649 C   0  0  0  0  0  0  0  0  0  0  0  0
   -0.6422   -1.4015   -0.6899 C   0  0  0  0  0  0  0  0  0  0  0  0
    0.1416   -0.2447   -1.3486 C   0  0  3  0  0  0  0  0  0  0  0  0
   -0.3857    1.0383   -0.6693 C   0  0  3  0  0  0  0  0  0  0  0  0
    0.5941    2.1241   -1.1103 C   0  0  0  0  0  0  0  0  0  0  0  0
    1.9423    1.3920   -1.1498 C   0  0  0  0  0  0  0  0  0  0  0  0
    1.6465   -0.1165   -0.9649 C   0  0  3  0  0  0  0  0  0  0  0  0
   -0.0697   -0.2771   -2.8831 C   0  0  0  0  0  0  0  0  0  0  0  0
   -4.6436    0.1351   -2.0825 C   0  0  0  0  0  0  0  0  0  0  0  0
    2.7745   -1.0417   -1.5295 C   0  0  3  0  0  0  0  0  0  0  0  0
    3.0937   -0.9410   -3.0370 C   0  0  0  0  0  0  0  0  0  0  0  0
    2.5974   -2.5455   -1.2205 C   0  0  0  0  0  0  0  0  0  0  0  0
    2.5388   -2.8841    0.2792 C   0  0  0  0  0  0  0  0  0  0  0  0
    2.4427   -4.4049    0.4826 C   0  0  0  0  0  0  0  0  0  0  0  0
    2.2290   -4.8105    1.9526 C   0  0  0  0  0  0  0  0  0  0  0  0
    2.0183   -6.3279    2.0316 C   0  0  0  0  0  0  0  0  0  0  0  0
    3.4168   -4.4279    2.8483 C   0  0  0  0  0  0  0  0  0  0  0  0
   -8.2462    1.0991    0.9121 O   0  0  0  0  0  0  0  0  0  0  0  0
  1  2  1  0  0  0  0
  1 10  1  0  0  0  0
  2  3  1  0  0  0  0
  3  4  1  0  0  0  0
  3 28  1  0  0  0  0
  4  5  1  0  0  0  0
  5  6  2  0  0  0  0
  5 10  1  0  0  0  0
  6  7  1  0  0  0  0
  7  8  1  0  0  0  0
  8  9  1  0  0  0  0
  8 14  1  0  0  0  0
  9 10  1  0  0  0  0
  9 11  1  0  0  0  0
 10 19  1  0  0  0  0
 11 12  1  0  0  0  0
 12 13  1  0  0  0  0
 13 14  1  0  0  0  0
 13 17  1  0  0  0  0
 13 18  1  0  0  0  0
 14 15  1  0  0  0  0
 15 16  1  0  0  0  0
 16 17  1  0  0  0  0
 17 20  1  0  0  0  0
 20 21  1  0  0  0  0
 20 22  1  0  0  0  0
 22 23  1  0  0  0  0
 23 24  1  0  0  0  0
 24 25  1  0  0  0  0
 25 26  1  0  0  0  0
 25 27  1  0  0  0  0
M  END
$$$$
CLR_2rh1_C_413
  PyMOL2.2          3D                             0

 28 31  0  0  1  0  0  0  0  0999 V2000
   -5.0914   -0.7458    0.2015 C   0  0  0  0  0  0  0  0  0  0  0  0
   -6.6135   -0.5164    0.2570 C   0  0  0  0  0  0  0  0  0  0  0  0
   -6.9046    0.8915    0.7716 C   0  0  3  0  0  0  0  0  0  0  0  0
   -6.2161    1.9541   -0.0909 C   0  0  0  0  0  0  0  0  0  0  0  0
   -4.7213    1.7078   -0.2358 C   0  0  0  0  0  0  0  0  0  0  0  0
   -3.8558    2.7169   -0.0428 C   0  0  0  0  0  0  0  0  0  0  0  0
   -2.3566    2.5747   -0.1592 C   0  0  0  0  0  0  0  0  0  0  0  0
   -1.9073    1.2868   -0.8736 C   0  0  3  0  0  0  0  0  0  0  0  0
   -2.7502    0.0878   -0.3743 C   0  0  3  0  0  0  0  0  0  0  0  0
   -4.2891    0.2901   -0.6417 C   0  0  3  0  0  0  0  0  0  0  0  0
   -2.1835   -1.2737   -0.8641 C   0  0  0  0  0  0  0  0  0  0  0  0
   -0.6625   -1.4215   -0.6599 C   0  0  0  0  0  0  0  0  0  0  0  0
    0.1397   -0.2627   -1.3002 C   0  0  3  0  0  0  0  0  0  0  0  0
   -0.4089    1.0129   -0.6282 C   0  0  3  0  0  0  0  0  0  0  0  0
    0.5720    2.1032   -1.0460 C   0  0  0  0  0  0  0  0  0  0  0  0
    1.9150    1.3653   -1.0447 C   0  0  0  0  0  0  0  0  0  0  0  0
    1.6403   -0.1499   -0.8949 C   0  0  3  0  0  0  0  0  0  0  0  0
   -0.0145   -0.2800   -2.8455 C   0  0  0  0  0  0  0  0  0  0  0  0
   -4.6327    0.1059   -2.1403 C   0  0  0  0  0  0  0  0  0  0  0  0
    2.7162   -1.0382   -1.5987 C   0  0  3  0  0  0  0  0  0  0  0  0
    2.3742   -2.5369   -1.4849 C   0  0  0  0  0  0  0  0  0  0  0  0
    4.1474   -0.8832   -1.0085 C   0  0  0  0  0  0  0  0  0  0  0  0
    4.9929    0.3544   -1.3760 C   0  0  0  0  0  0  0  0  0  0  0  0
    5.2062    0.5308   -2.8906 C   0  0  0  0  0  0  0  0  0  0  0  0
    6.0638    1.7609   -3.2496 C   0  0  0  0  0  0  0  0  0  0  0  0
    7.5140    1.6388   -2.7587 C   0  0  0  0  0  0  0  0  0  0  0  0
    6.0742    1.9377   -4.7732 C   0  0  0  0  0  0  0  0  0  0  0  0
   -8.3035    1.0843    0.7640 O   0  0  0  0  0  0  0  0  0  0  0  0
  1  2  1  0  0  0  0
  1 10  1  0  0  0  0
  2  3  1  0  0  0  0
  3  4  1  0  0  0  0
  3 28  1  0  0  0  0
  4  5  1  0  0  0  0
  5  6  2  0  0  0  0
  5 10  1  0  0  0  0
  6  7  1  0  0  0  0
  7  8  1  0  0  0  0
  8  9  1  0  0  0  0
  8 14  1  0  0  0  0
  9 10  1  0  0  0  0
  9 11  1  0  0  0  0
 10 19  1  0  0  0  0
 11 12  1  0  0  0  0
 12 13  1  0  0  0  0
 13 14  1  0  0  0  0
 13 17  1  0  0  0  0
 13 18  1  0  0  0  0
 14 15  1  0  0  0  0
 15 16  1  0  0  0  0
 16 17  1  0  0  0  0
 17 20  1  0  0  0  0
 20 21  1  0  0  0  0
 20 22  1  0  0  0  0
 22 23  1  0  0  0  0
 23 24  1  0  0  0  0
 24 25  1  0  0  0  0
 25 26  1  0  0  0  0
 25 27  1  0  0  0  0
M  END
$$$$
CLR_2rh1_C_413
  PyMOL2.2          3D                             0

 28 31  0  0  1  0  0  0  0  0999 V2000
   -5.0678   -0.7574    0.2049 C   0  0  0  0  0  0  0  0  0  0  0  0
   -6.5909   -0.5386    0.2638 C   0  0  0  0  0  0  0  0  0  0  0  0
   -6.8918    0.8672    0.7796 C   0  0  3  0  0  0  0  0  0  0  0  0
   -6.2126    1.9343   -0.0856 C   0  0  0  0  0  0  0  0  0  0  0  0
   -4.7166    1.6988   -0.2347 C   0  0  0  0  0  0  0  0  0  0  0  0
   -3.8581    2.7140   -0.0448 C   0  0  0  0  0  0  0  0  0  0  0  0
   -2.3586    2.5829   -0.1654 C   0  0  0  0  0  0  0  0  0  0  0  0
   -1.9016    1.2978   -0.8785 C   0  0  3  0  0  0  0  0  0  0  0  0
   -2.7337    0.0920   -0.3752 C   0  0  3  0  0  0  0  0  0  0  0  0
   -4.2753    0.2826   -0.6408 C   0  0  3  0  0  0  0  0  0  0  0  0
   -2.1602   -1.2677   -0.8614 C   0  0  0  0  0  0  0  0  0  0  0  0
   -0.6363   -1.4048   -0.6685 C   0  0  0  0  0  0  0  0  0  0  0  0
    0.1474   -0.2374   -1.3102 C   0  0  3  0  0  0  0  0  0  0  0  0
   -0.4011    1.0349   -0.6344 C   0  0  3  0  0  0  0  0  0  0  0  0
    0.5783    2.1337   -1.0434 C   0  0  0  0  0  0  0  0  0  0  0  0
    1.9244    1.4004   -1.1002 C   0  0  0  0  0  0  0  0  0  0  0  0
    1.6432   -0.1093   -0.9049 C   0  0  3  0  0  0  0  0  0  0  0  0
   -0.0097   -0.2607   -2.8552 C   0  0  0  0  0  0  0  0  0  0  0  0
   -4.6202    0.0961   -2.1384 C   0  0  0  0  0  0  0  0  0  0  0  0
    2.7303   -0.9871   -1.5947 C   0  0  3  0  0  0  0  0  0  0  0  0
    2.4512   -2.4952   -1.4709 C   0  0  0  0  0  0  0  0  0  0  0  0
    4.1406   -0.7099   -1.0032 C   0  0  0  0  0  0  0  0  0  0  0  0
    5.0805    0.0761   -1.9347 C   0  0  0  0  0  0  0  0  0  0  0  0
    5.5377   -0.7553   -3.1480 C   0  0  0  0  0  0  0  0  0  0  0  0
    6.5986   -0.0442   -4.0080 C   0  0  0  0  0  0  0  0  0  0  0  0
    7.0898   -1.0055   -5.0989 C   0  0  0  0  0  0  0  0  0  0  0  0
    6.0561    1.2277   -4.6777 C   0  0  0  0  0  0  0  0  0  0  0  0
   -8.2915    1.0503    0.7752 O   0  0  0  0  0  0  0  0  0  0  0  0
  1  2  1  0  0  0  0
  1 10  1  0  0  0  0
  2  3  1  0  0  0  0
  3  4  1  0  0  0  0
  3 28  1  0  0  0  0
  4  5  1  0  0  0  0
  5  6  2  0  0  0  0
  5 10  1  0  0  0  0
  6  7  1  0  0  0  0
  7  8  1  0  0  0  0
  8  9  1  0  0  0  0
  8 14  1  0  0  0  0
  9 10  1  0  0  0  0
  9 11  1  0  0  0  0
 10 19  1  0  0  0  0
 11 12  1  0  0  0  0
 12 13  1  0  0  0  0
 13 14  1  0  0  0  0
 13 17  1  0  0  0  0
 13 18  1  0  0  0  0
 14 15  1  0  0  0  0
 15 16  1  0  0  0  0
 16 17  1  0  0  0  0
 17 20  1  0  0  0  0
 20 21  1  0  0  0  0
 20 22  1  0  0  0  0
 22 23  1  0  0  0  0
 23 24  1  0  0  0  0
 24 25  1  0  0  0  0
 25 26  1  0  0  0  0
 25 27  1  0  0  0  0
M  END
$$$$
CLR_2rh1_C_413
  PyMOL2.2          3D                             0

 28 31  0  0  1  0  0  0  0  0999 V2000
   -5.0960   -0.7422    0.1974 C   0  0  0  0  0  0  0  0  0  0  0  0
   -6.6157   -0.5056    0.2533 C   0  0  0  0  0  0  0  0  0  0  0  0
   -6.9010    0.9015    0.7732 C   0  0  3  0  0  0  0  0  0  0  0  0
   -6.2071    1.9643   -0.0872 C   0  0  0  0  0  0  0  0  0  0  0  0
   -4.7143    1.7106   -0.2329 C   0  0  0  0  0  0  0  0  0  0  0  0
   -3.8439    2.7160   -0.0382 C   0  0  0  0  0  0  0  0  0  0  0  0
   -2.3451    2.5659   -0.1556 C   0  0  0  0  0  0  0  0  0  0  0  0
   -1.9021    1.2780   -0.8724 C   0  0  3  0  0  0  0  0  0  0  0  0
   -2.7505    0.0819   -0.3761 C   0  0  3  0  0  0  0  0  0  0  0  0
   -4.2884    0.2914   -0.6438 C   0  0  3  0  0  0  0  0  0  0  0  0
   -2.1912   -1.2821   -0.8674 C   0  0  0  0  0  0  0  0  0  0  0  0
   -0.6705   -1.4384   -0.6670 C   0  0  0  0  0  0  0  0  0  0  0  0
    0.1340   -0.2806   -1.3042 C   0  0  3  0  0  0  0  0  0  0  0  0
   -0.4046    0.9966   -0.6269 C   0  0  3  0  0  0  0  0  0  0  0  0
    0.5845    2.0843   -1.0342 C   0  0  0  0  0  0  0  0  0  0  0  0
    1.9243    1.3395   -1.0545 C   0  0  0  0  0  0  0  0  0  0  0  0
    1.6323   -0.1740   -0.8970 C   0  0  3  0  0  0  0  0  0  0  0  0
   -0.0199   -0.2936   -2.8490 C   0  0  0  0  0  0  0  0  0  0  0  0
   -4.6323    0.1136   -2.1423 C   0  0  0  0  0  0  0  0  0  0  0  0
    2.7162   -1.0494   -1.5998 C   0  0  3  0  0  0  0  0  0  0  0  0
    2.4042   -2.5538   -1.5032 C   0  0  0  0  0  0  0  0  0  0  0  0
    4.1140   -0.7522   -0.9948 C   0  0  0  0  0  0  0  0  0  0  0  0
    5.3024   -1.4849   -1.6518 C   0  0  0  0  0  0  0  0  0  0  0  0
    5.8122   -2.6639   -0.8026 C   0  0  0  0  0  0  0  0  0  0  0  0
    6.8650   -3.5250   -1.5245 C   0  0  0  0  0  0  0  0  0  0  0  0
    8.1515   -2.7455   -1.8367 C   0  0  0  0  0  0  0  0  0  0  0  0
    7.2196   -4.7320   -0.6453 C   0  0  0  0  0  0  0  0  0  0  0  0
   -8.2983    1.1024    0.7672 O   0  0  0  0  0  0  0  0  0  0  0  0
  1  2  1  0  0  0  0
  1 10  1  0  0  0  0
  2  3  1  0  0  0  0
  3  4  1  0  0  0  0
  3 28  1  0  0  0  0
  4  5  1  0  0  0  0
  5  6  2  0  0  0  0
  5 10  1  0  0  0  0
  6  7  1  0  0  0  0
  7  8  1  0  0  0  0
  8  9  1  0  0  0  0
  8 14  1  0  0  0  0
  9 10  1  0  0  0  0
  9 11  1  0  0  0  0
 10 19  1  0  0  0  0
 11 12  1  0  0  0  0
 12 13  1  0  0  0  0
 13 14  1  0  0  0  0
 13 17  1  0  0  0  0
 13 18  1  0  0  0  0
 14 15  1  0  0  0  0
 15 16  1  0  0  0  0
 16 17  1  0  0  0  0
 17 20  1  0  0  0  0
 20 21  1  0  0  0  0
 20 22  1  0  0  0  0
 22 23  1  0  0  0  0
 23 24  1  0  0  0  0
 24 25  1  0  0  0  0
 25 26  1  0  0  0  0
 25 27  1  0  0  0  0
M  END
$$$$
CLR_2rh1_C_413
  PyMOL2.2          3D                             0

 28 31  0  0  1  0  0  0  0  0999 V2000
   -5.0804   -0.7688    0.1844 C   0  0  0  0  0  0  0  0  0  0  0  0
   -6.6051   -0.5575    0.2320 C   0  0  0  0  0  0  0  0  0  0  0  0
   -6.9156    0.8486    0.7419 C   0  0  3  0  0  0  0  0  0  0  0  0
   -6.2312    1.9185   -0.1141 C   0  0  0  0  0  0  0  0  0  0  0  0
   -4.7331    1.6859   -0.2536 C   0  0  0  0  0  0  0  0  0  0  0  0
   -3.8795    2.7039   -0.0563 C   0  0  0  0  0  0  0  0  0  0  0  0
   -2.3784    2.5774   -0.1675 C   0  0  0  0  0  0  0  0  0  0  0  0
   -1.9134    1.2954   -0.8811 C   0  0  3  0  0  0  0  0  0  0  0  0
   -2.7448    0.0857   -0.3862 C   0  0  3  0  0  0  0  0  0  0  0  0
   -4.2857    0.2725   -0.6577 C   0  0  3  0  0  0  0  0  0  0  0  0
   -2.1650   -1.2716   -0.8736 C   0  0  0  0  0  0  0  0  0  0  0  0
   -0.6419   -1.4063   -0.6728 C   0  0  0  0  0  0  0  0  0  0  0  0
    0.1403   -0.2326   -1.3052 C   0  0  3  0  0  0  0  0  0  0  0  0
   -0.4139    1.0375   -0.6301 C   0  0  3  0  0  0  0  0  0  0  0  0
    0.5668    2.1364   -1.0360 C   0  0  0  0  0  0  0  0  0  0  0  0
    1.9163    1.4068   -1.0677 C   0  0  0  0  0  0  0  0  0  0  0  0
    1.6326   -0.1044   -0.8893 C   0  0  3  0  0  0  0  0  0  0  0  0
   -0.0077   -0.2550   -2.8500 C   0  0  0  0  0  0  0  0  0  0  0  0
   -4.6240    0.0857   -2.1581 C   0  0  0  0  0  0  0  0  0  0  0  0
    2.7145   -0.9842   -1.5844 C   0  0  3  0  0  0  0  0  0  0  0  0
    2.4545   -2.4921   -1.4214 C   0  0  0  0  0  0  0  0  0  0  0  0
    4.1546   -0.6596   -1.1128 C   0  0  0  0  0  0  0  0  0  0  0  0
    4.4122   -0.8120    0.3978 C   0  0  0  0  0  0  0  0  0  0  0  0
    5.8987   -0.7612    0.8102 C   0  0  0  0  0  0  0  0  0  0  0  0
    6.7068    0.5393    0.5986 C   0  0  0  0  0  0  0  0  0  0  0  0
    7.2823    0.6767   -0.8187 C   0  0  0  0  0  0  0  0  0  0  0  0
    5.9252    1.8043    0.9759 C   0  0  0  0  0  0  0  0  0  0  0  0
   -8.3147    1.0369    0.7195 O   0  0  0  0  0  0  0  0  0  0  0  0
  1  2  1  0  0  0  0
  1 10  1  0  0  0  0
  2  3  1  0  0  0  0
  3  4  1  0  0  0  0
  3 28  1  0  0  0  0
  4  5  1  0  0  0  0
  5  6  2  0  0  0  0
  5 10  1  0  0  0  0
  6  7  1  0  0  0  0
  7  8  1  0  0  0  0
  8  9  1  0  0  0  0
  8 14  1  0  0  0  0
  9 10  1  0  0  0  0
  9 11  1  0  0  0  0
 10 19  1  0  0  0  0
 11 12  1  0  0  0  0
 12 13  1  0  0  0  0
 13 14  1  0  0  0  0
 13 17  1  0  0  0  0
 13 18  1  0  0  0  0
 14 15  1  0  0  0  0
 15 16  1  0  0  0  0
 16 17  1  0  0  0  0
 17 20  1  0  0  0  0
 20 21  1  0  0  0  0
 20 22  1  0  0  0  0
 22 23  1  0  0  0  0
 23 24  1  0  0  0  0
 24 25  1  0  0  0  0
 25 26  1  0  0  0  0
 25 27  1  0  0  0  0
M  END
$$$$
CLR_2rh1_C_413
  PyMOL2.2          3D                             0

 28 31  0  0  1  0  0  0  0  0999 V2000
   -5.0828   -0.7690    0.1827 C   0  0  0  0  0  0  0  0  0  0  0  0
   -6.6073   -0.5535    0.2346 C   0  0  0  0  0  0  0  0  0  0  0  0
   -6.9129    0.8514    0.7497 C   0  0  3  0  0  0  0  0  0  0  0  0
   -6.2316    1.9213   -0.1114 C   0  0  0  0  0  0  0  0  0  0  0  0
   -4.7345    1.6883   -0.2531 C   0  0  0  0  0  0  0  0  0  0  0  0
   -3.8791    2.7050   -0.0574 C   0  0  0  0  0  0  0  0  0  0  0  0
   -2.3776    2.5766   -0.1705 C   0  0  0  0  0  0  0  0  0  0  0  0
   -1.9152    1.2923   -0.8831 C   0  0  3  0  0  0  0  0  0  0  0  0
   -2.7482    0.0851   -0.3854 C   0  0  3  0  0  0  0  0  0  0  0  0
   -4.2876    0.2739   -0.6580 C   0  0  3  0  0  0  0  0  0  0  0  0
   -2.1682   -1.2714   -0.8719 C   0  0  0  0  0  0  0  0  0  0  0  0
   -0.6462   -1.4060   -0.6668 C   0  0  0  0  0  0  0  0  0  0  0  0
    0.1431   -0.2387   -1.3055 C   0  0  3  0  0  0  0  0  0  0  0  0
   -0.4140    1.0324   -0.6322 C   0  0  3  0  0  0  0  0  0  0  0  0
    0.5604    2.1336   -1.0397 C   0  0  0  0  0  0  0  0  0  0  0  0
    1.9099    1.4072   -1.0532 C   0  0  0  0  0  0  0  0  0  0  0  0
    1.6392   -0.1102   -0.8940 C   0  0  3  0  0  0  0  0  0  0  0  0
   -0.0053   -0.2577   -2.8507 C   0  0  0  0  0  0  0  0  0  0  0  0
   -4.6261    0.0872   -2.1575 C   0  0  0  0  0  0  0  0  0  0  0  0
    2.7375   -0.9711   -1.5940 C   0  0  3  0  0  0  0  0  0  0  0  0
    2.4489   -2.4798   -1.4967 C   0  0  0  0  0  0  0  0  0  0  0  0
    4.1296   -0.6525   -0.9859 C   0  0  0  0  0  0  0  0  0  0  0  0
    5.3295   -1.3710   -1.6352 C   0  0  0  0  0  0  0  0  0  0  0  0
    5.8530   -2.5401   -0.7786 C   0  0  0  0  0  0  0  0  0  0  0  0
    7.0805   -3.2444   -1.3875 C   0  0  0  0  0  0  0  0  0  0  0  0
    7.6263   -4.2657   -0.3804 C   0  0  0  0  0  0  0  0  0  0  0  0
    6.7494   -3.9743   -2.6976 C   0  0  0  0  0  0  0  0  0  0  0  0
   -8.3127    1.0324    0.7388 O   0  0  0  0  0  0  0  0  0  0  0  0
  1  2  1  0  0  0  0
  1 10  1  0  0  0  0
  2  3  1  0  0  0  0
  3  4  1  0  0  0  0
  3 28  1  0  0  0  0
  4  5  1  0  0  0  0
  5  6  2  0  0  0  0
  5 10  1  0  0  0  0
  6  7  1  0  0  0  0
  7  8  1  0  0  0  0
  8  9  1  0  0  0  0
  8 14  1  0  0  0  0
  9 10  1  0  0  0  0
  9 11  1  0  0  0  0
 10 19  1  0  0  0  0
 11 12  1  0  0  0  0
 12 13  1  0  0  0  0
 13 14  1  0  0  0  0
 13 17  1  0  0  0  0
 13 18  1  0  0  0  0
 14 15  1  0  0  0  0
 15 16  1  0  0  0  0
 16 17  1  0  0  0  0
 17 20  1  0  0  0  0
 20 21  1  0  0  0  0
 20 22  1  0  0  0  0
 22 23  1  0  0  0  0
 23 24  1  0  0  0  0
 24 25  1  0  0  0  0
 25 26  1  0  0  0  0
 25 27  1  0  0  0  0
M  END
$$$$
CLR_2rh1_C_413
  PyMOL2.2          3D                             0

 28 31  0  0  1  0  0  0  0  0999 V2000
   -5.0650   -0.7598    0.2040 C   0  0  0  0  0  0  0  0  0  0  0  0
   -6.5883   -0.5420    0.2659 C   0  0  0  0  0  0  0  0  0  0  0  0
   -6.8891    0.8624    0.7845 C   0  0  3  0  0  0  0  0  0  0  0  0
   -6.2125    1.9318   -0.0799 C   0  0  0  0  0  0  0  0  0  0  0  0
   -4.7163    1.6987   -0.2313 C   0  0  0  0  0  0  0  0  0  0  0  0
   -3.8585    2.7138   -0.0404 C   0  0  0  0  0  0  0  0  0  0  0  0
   -2.3588    2.5834   -0.1631 C   0  0  0  0  0  0  0  0  0  0  0  0
   -1.9024    1.3014   -0.8808 C   0  0  3  0  0  0  0  0  0  0  0  0
   -2.7328    0.0928   -0.3804 C   0  0  3  0  0  0  0  0  0  0  0  0
   -4.2744    0.2836   -0.6410 C   0  0  3  0  0  0  0  0  0  0  0  0
   -2.1589   -1.2651   -0.8729 C   0  0  0  0  0  0  0  0  0  0  0  0
   -0.6360   -1.4032   -0.6763 C   0  0  0  0  0  0  0  0  0  0  0  0
    0.1482   -0.2345   -1.3131 C   0  0  3  0  0  0  0  0  0  0  0  0
   -0.4011    1.0404   -0.6412 C   0  0  3  0  0  0  0  0  0  0  0  0
    0.5778    2.1346   -1.0616 C   0  0  0  0  0  0  0  0  0  0  0  0
    1.9234    1.3988   -1.1077 C   0  0  0  0  0  0  0  0  0  0  0  0
    1.6399   -0.1095   -0.8932 C   0  0  3  0  0  0  0  0  0  0  0  0
   -0.0092   -0.2481   -2.8595 C   0  0  0  0  0  0  0  0  0  0  0  0
   -4.6226    0.0983   -2.1382 C   0  0  0  0  0  0  0  0  0  0  0  0
    2.7260   -1.0059   -1.5618 C   0  0  3  0  0  0  0  0  0  0  0  0
    2.4010   -2.5101   -1.5637 C   0  0  0  0  0  0  0  0  0  0  0  0
    4.1557   -0.7821   -0.9884 C   0  0  0  0  0  0  0  0  0  0  0  0
    4.6233   -1.5968    0.2417 C   0  0  0  0  0  0  0  0  0  0  0  0
    3.8662   -1.3968    1.5678 C   0  0  0  0  0  0  0  0  0  0  0  0
    3.9013    0.0307    2.1504 C   0  0  0  0  0  0  0  0  0  0  0  0
    3.0061    0.0889    3.3952 C   0  0  0  0  0  0  0  0  0  0  0  0
    5.3207    0.4712    2.5334 C   0  0  0  0  0  0  0  0  0  0  0  0
   -8.2891    1.0450    0.7825 O   0  0  0  0  0  0  0  0  0  0  0  0
  1  2  1  0  0  0  0
  1 10  1  0  0  0  0
  2  3  1  0  0  0  0
  3  4  1  0  0  0  0
  3 28  1  0  0  0  0
  4  5  1  0  0  0  0
  5  6  2  0  0  0  0
  5 10  1  0  0  0  0
  6  7  1  0  0  0  0
  7  8  1  0  0  0  0
  8  9  1  0  0  0  0
  8 14  1  0  0  0  0
  9 10  1  0  0  0  0
  9 11  1  0  0  0  0
 10 19  1  0  0  0  0
 11 12  1  0  0  0  0
 12 13  1  0  0  0  0
 13 14  1  0  0  0  0
 13 17  1  0  0  0  0
 13 18  1  0  0  0  0
 14 15  1  0  0  0  0
 15 16  1  0  0  0  0
 16 17  1  0  0  0  0
 17 20  1  0  0  0  0
 20 21  1  0  0  0  0
 20 22  1  0  0  0  0
 22 23  1  0  0  0  0
 23 24  1  0  0  0  0
 24 25  1  0  0  0  0
 25 26  1  0  0  0  0
 25 27  1  0  0  0  0
M  END
$$$$
CLR_2rh1_C_413
  PyMOL2.2          3D                             0

 28 31  0  0  1  0  0  0  0  0999 V2000
   -5.0687   -0.7578    0.2048 C   0  0  0  0  0  0  0  0  0  0  0  0
   -6.5923   -0.5389    0.2638 C   0  0  0  0  0  0  0  0  0  0  0  0
   -6.8924    0.8679    0.7793 C   0  0  3  0  0  0  0  0  0  0  0  0
   -6.2129    1.9346   -0.0853 C   0  0  0  0  0  0  0  0  0  0  0  0
   -4.7173    1.6996   -0.2340 C   0  0  0  0  0  0  0  0  0  0  0  0
   -3.8582    2.7140   -0.0439 C   0  0  0  0  0  0  0  0  0  0  0  0
   -2.3580    2.5819   -0.1641 C   0  0  0  0  0  0  0  0  0  0  0  0
   -1.9017    1.2971   -0.8772 C   0  0  3  0  0  0  0  0  0  0  0  0
   -2.7339    0.0919   -0.3750 C   0  0  3  0  0  0  0  0  0  0  0  0
   -4.2761    0.2832   -0.6403 C   0  0  3  0  0  0  0  0  0  0  0  0
   -2.1608   -1.2677   -0.8611 C   0  0  0  0  0  0  0  0  0  0  0  0
   -0.6367   -1.4052   -0.6716 C   0  0  0  0  0  0  0  0  0  0  0  0
    0.1492   -0.2376   -1.3124 C   0  0  3  0  0  0  0  0  0  0  0  0
   -0.4012    1.0336   -0.6335 C   0  0  3  0  0  0  0  0  0  0  0  0
    0.5761    2.1356   -1.0345 C   0  0  0  0  0  0  0  0  0  0  0  0
    1.9206    1.4019   -1.1157 C   0  0  0  0  0  0  0  0  0  0  0  0
    1.6458   -0.1063   -0.9099 C   0  0  3  0  0  0  0  0  0  0  0  0
   -0.0094   -0.2581   -2.8570 C   0  0  0  0  0  0  0  0  0  0  0  0
   -4.6207    0.0965   -2.1385 C   0  0  0  0  0  0  0  0  0  0  0  0
    2.7382   -0.9945   -1.5820 C   0  0  3  0  0  0  0  0  0  0  0  0
    2.4314   -2.4975   -1.4553 C   0  0  0  0  0  0  0  0  0  0  0  0
    4.1406   -0.7437   -0.9615 C   0  0  0  0  0  0  0  0  0  0  0  0
    5.0332    0.1809   -1.8118 C   0  0  0  0  0  0  0  0  0  0  0  0
    6.3845    0.5029   -1.1465 C   0  0  0  0  0  0  0  0  0  0  0  0
    7.2973   -0.7003   -0.8292 C   0  0  0  0  0  0  0  0  0  0  0  0
    7.6498   -1.5163   -2.0803 C   0  0  0  0  0  0  0  0  0  0  0  0
    8.5938   -0.1902   -0.1871 C   0  0  0  0  0  0  0  0  0  0  0  0
   -8.2918    1.0510    0.7755 O   0  0  0  0  0  0  0  0  0  0  0  0
  1  2  1  0  0  0  0
  1 10  1  0  0  0  0
  2  3  1  0  0  0  0
  3  4  1  0  0  0  0
  3 28  1  0  0  0  0
  4  5  1  0  0  0  0
  5  6  2  0  0  0  0
  5 10  1  0  0  0  0
  6  7  1  0  0  0  0
  7  8  1  0  0  0  0
  8  9  1  0  0  0  0
  8 14  1  0  0  0  0
  9 10  1  0  0  0  0
  9 11  1  0  0  0  0
 10 19  1  0  0  0  0
 11 12  1  0  0  0  0
 12 13  1  0  0  0  0
 13 14  1  0  0  0  0
 13 17  1  0  0  0  0
 13 18  1  0  0  0  0
 14 15  1  0  0  0  0
 15 16  1  0  0  0  0
 16 17  1  0  0  0  0
 17 20  1  0  0  0  0
 20 21  1  0  0  0  0
 20 22  1  0  0  0  0
 22 23  1  0  0  0  0
 23 24  1  0  0  0  0
 24 25  1  0  0  0  0
 25 26  1  0  0  0  0
 25 27  1  0  0  0  0
M  END
$$$$
CLR_2rh1_C_413
  PyMOL2.2          3D                             0

 28 31  0  0  1  0  0  0  0  0999 V2000
   -5.0661   -0.7558    0.2093 C   0  0  0  0  0  0  0  0  0  0  0  0
   -6.5905   -0.5406    0.2648 C   0  0  0  0  0  0  0  0  0  0  0  0
   -6.8950    0.8666    0.7745 C   0  0  3  0  0  0  0  0  0  0  0  0
   -6.2129    1.9337   -0.0873 C   0  0  0  0  0  0  0  0  0  0  0  0
   -4.7159    1.6977   -0.2348 C   0  0  0  0  0  0  0  0  0  0  0  0
   -3.8588    2.7144   -0.0455 C   0  0  0  0  0  0  0  0  0  0  0  0
   -2.3582    2.5838   -0.1658 C   0  0  0  0  0  0  0  0  0  0  0  0
   -1.9003    1.2991   -0.8784 C   0  0  3  0  0  0  0  0  0  0  0  0
   -2.7320    0.0925   -0.3759 C   0  0  3  0  0  0  0  0  0  0  0  0
   -4.2736    0.2825   -0.6389 C   0  0  3  0  0  0  0  0  0  0  0  0
   -2.1581   -1.2677   -0.8623 C   0  0  0  0  0  0  0  0  0  0  0  0
   -0.6342   -1.4049   -0.6703 C   0  0  0  0  0  0  0  0  0  0  0  0
    0.1466   -0.2355   -1.3093 C   0  0  3  0  0  0  0  0  0  0  0  0
   -0.3996    1.0386   -0.6352 C   0  0  3  0  0  0  0  0  0  0  0  0
    0.5805    2.1337   -1.0482 C   0  0  0  0  0  0  0  0  0  0  0  0
    1.9280    1.4008   -1.0862 C   0  0  0  0  0  0  0  0  0  0  0  0
    1.6423   -0.1088   -0.9039 C   0  0  3  0  0  0  0  0  0  0  0  0
   -0.0106   -0.2607   -2.8543 C   0  0  0  0  0  0  0  0  0  0  0  0
   -4.6205    0.0931   -2.1365 C   0  0  0  0  0  0  0  0  0  0  0  0
    2.7181   -0.9908   -1.6037 C   0  0  3  0  0  0  0  0  0  0  0  0
    2.4619   -2.4978   -1.4296 C   0  0  0  0  0  0  0  0  0  0  0  0
    4.1649   -0.6700   -1.1498 C   0  0  0  0  0  0  0  0  0  0  0  0
    4.4499   -0.8577    0.3548 C   0  0  0  0  0  0  0  0  0  0  0  0
    5.9276   -0.6006    0.7214 C   0  0  0  0  0  0  0  0  0  0  0  0
    6.8678   -1.8246    0.7874 C   0  0  0  0  0  0  0  0  0  0  0  0
    6.5086   -2.7627    1.9499 C   0  0  0  0  0  0  0  0  0  0  0  0
    6.9185   -2.6294   -0.5168 C   0  0  0  0  0  0  0  0  0  0  0  0
   -8.2933    1.0590    0.7597 O   0  0  0  0  0  0  0  0  0  0  0  0
  1  2  1  0  0  0  0
  1 10  1  0  0  0  0
  2  3  1  0  0  0  0
  3  4  1  0  0  0  0
  3 28  1  0  0  0  0
  4  5  1  0  0  0  0
  5  6  2  0  0  0  0
  5 10  1  0  0  0  0
  6  7  1  0  0  0  0
  7  8  1  0  0  0  0
  8  9  1  0  0  0  0
  8 14  1  0  0  0  0
  9 10  1  0  0  0  0
  9 11  1  0  0  0  0
 10 19  1  0  0  0  0
 11 12  1  0  0  0  0
 12 13  1  0  0  0  0
 13 14  1  0  0  0  0
 13 17  1  0  0  0  0
 13 18  1  0  0  0  0
 14 15  1  0  0  0  0
 15 16  1  0  0  0  0
 16 17  1  0  0  0  0
 17 20  1  0  0  0  0
 20 21  1  0  0  0  0
 20 22  1  0  0  0  0
 22 23  1  0  0  0  0
 23 24  1  0  0  0  0
 24 25  1  0  0  0  0
 25 26  1  0  0  0  0
 25 27  1  0  0  0  0
M  END
$$$$
CLR_2rh1_C_413
  PyMOL2.2          3D                             0

 28 31  0  0  1  0  0  0  0  0999 V2000
   -5.0670   -0.7575    0.2064 C   0  0  0  0  0  0  0  0  0  0  0  0
   -6.5900   -0.5397    0.2656 C   0  0  0  0  0  0  0  0  0  0  0  0
   -6.8907    0.8662    0.7802 C   0  0  3  0  0  0  0  0  0  0  0  0
   -6.2132    1.9341   -0.0860 C   0  0  0  0  0  0  0  0  0  0  0  0
   -4.7171    1.6984   -0.2347 C   0  0  0  0  0  0  0  0  0  0  0  0
   -3.8594    2.7149   -0.0462 C   0  0  0  0  0  0  0  0  0  0  0  0
   -2.3591    2.5835   -0.1673 C   0  0  0  0  0  0  0  0  0  0  0  0
   -1.9012    1.2993   -0.8805 C   0  0  3  0  0  0  0  0  0  0  0  0
   -2.7335    0.0926   -0.3770 C   0  0  3  0  0  0  0  0  0  0  0  0
   -4.2749    0.2829   -0.6403 C   0  0  3  0  0  0  0  0  0  0  0  0
   -2.1585   -1.2671   -0.8635 C   0  0  0  0  0  0  0  0  0  0  0  0
   -0.6363   -1.4037   -0.6661 C   0  0  0  0  0  0  0  0  0  0  0  0
    0.1486   -0.2371   -1.3073 C   0  0  3  0  0  0  0  0  0  0  0  0
   -0.4002    1.0388   -0.6376 C   0  0  3  0  0  0  0  0  0  0  0  0
    0.5783    2.1307   -1.0623 C   0  0  0  0  0  0  0  0  0  0  0  0
    1.9264    1.4002   -1.0707 C   0  0  0  0  0  0  0  0  0  0  0  0
    1.6447   -0.1146   -0.8985 C   0  0  3  0  0  0  0  0  0  0  0  0
   -0.0088   -0.2595   -2.8523 C   0  0  0  0  0  0  0  0  0  0  0  0
   -4.6213    0.0949   -2.1378 C   0  0  0  0  0  0  0  0  0  0  0  0
    2.7225   -0.9856   -1.6120 C   0  0  3  0  0  0  0  0  0  0  0  0
    2.4298   -2.4936   -1.5085 C   0  0  0  0  0  0  0  0  0  0  0  0
    4.1421   -0.7314   -1.0367 C   0  0  0  0  0  0  0  0  0  0  0  0
    5.2149   -0.4507   -2.1041 C   0  0  0  0  0  0  0  0  0  0  0  0
    5.4998   -1.6517   -3.0239 C   0  0  0  0  0  0  0  0  0  0  0  0
    6.5531   -1.3588   -4.1087 C   0  0  0  0  0  0  0  0  0  0  0  0
    7.9484   -1.0865   -3.5253 C   0  0  0  0  0  0  0  0  0  0  0  0
    6.6446   -2.5611   -5.0590 C   0  0  0  0  0  0  0  0  0  0  0  0
   -8.2908    1.0490    0.7766 O   0  0  0  0  0  0  0  0  0  0  0  0
  1  2  1  0  0  0  0
  1 10  1  0  0  0  0
  2  3  1  0  0  0  0
  3  4  1  0  0  0  0
  3 28  1  0  0  0  0
  4  5  1  0  0  0  0
  5  6  2  0  0  0  0
  5 10  1  0  0  0  0
  6  7  1  0  0  0  0
  7  8  1  0  0  0  0
  8  9  1  0  0  0  0
  8 14  1  0  0  0  0
  9 10  1  0  0  0  0
  9 11  1  0  0  0  0
 10 19  1  0  0  0  0
 11 12  1  0  0  0  0
 12 13  1  0  0  0  0
 13 14  1  0  0  0  0
 13 17  1  0  0  0  0
 13 18  1  0  0  0  0
 14 15  1  0  0  0  0
 15 16  1  0  0  0  0
 16 17  1  0  0  0  0
 17 20  1  0  0  0  0
 20 21  1  0  0  0  0
 20 22  1  0  0  0  0
 22 23  1  0  0  0  0
 23 24  1  0  0  0  0
 24 25  1  0  0  0  0
 25 26  1  0  0  0  0
 25 27  1  0  0  0  0
M  END
$$$$
CLR_2rh1_C_413
  PyMOL2.2          3D                             0

 28 31  0  0  1  0  0  0  0  0999 V2000
   -4.1921   -1.0330    0.5904 C   0  0  0  0  0  0  0  0  0  0  0  0
   -5.6954   -1.2710    0.8205 C   0  0  0  0  0  0  0  0  0  0  0  0
   -6.3758    0.0442    1.1943 C   0  0  3  0  0  0  0  0  0  0  0  0
   -6.1433    1.1156    0.1238 C   0  0  0  0  0  0  0  0  0  0  0  0
   -4.6673    1.3158   -0.1879 C   0  0  0  0  0  0  0  0  0  0  0  0
   -4.1571    2.5575   -0.2357 C   0  0  0  0  0  0  0  0  0  0  0  0
   -2.7081    2.8620   -0.5330 C   0  0  0  0  0  0  0  0  0  0  0  0
   -1.9363    1.6776   -1.1400 C   0  0  3  0  0  0  0  0  0  0  0  0
   -2.3011    0.3712   -0.3899 C   0  0  3  0  0  0  0  0  0  0  0  0
   -3.8417    0.0510   -0.4724 C   0  0  3  0  0  0  0  0  0  0  0  0
   -1.3738   -0.8154   -0.7768 C   0  0  0  0  0  0  0  0  0  0  0  0
    0.1272   -0.4634   -0.7601 C   0  0  0  0  0  0  0  0  0  0  0  0
    0.4506    0.7678   -1.6335 C   0  0  3  0  0  0  0  0  0  0  0  0
   -0.4132    1.9150   -1.0666 C   0  0  3  0  0  0  0  0  0  0  0  0
    0.1422    3.1685   -1.7416 C   0  0  0  0  0  0  0  0  0  0  0  0
    1.6489    2.8881   -1.8283 C   0  0  0  0  0  0  0  0  0  0  0  0
    1.8536    1.4081   -1.4254 C   0  0  3  0  0  0  0  0  0  0  0  0
    0.1688    0.4432   -3.1227 C   0  0  0  0  0  0  0  0  0  0  0  0
   -4.2382   -0.4634   -1.8779 C   0  0  0  0  0  0  0  0  0  0  0  0
    3.1788    0.7887   -1.9690 C   0  0  3  0  0  0  0  0  0  0  0  0
    3.3550    0.7095   -3.5006 C   0  0  0  0  0  0  0  0  0  0  0  0
    3.4389   -0.5992   -1.3411 C   0  0  0  0  0  0  0  0  0  0  0  0
    4.8973   -1.0707   -1.4665 C   0  0  0  0  0  0  0  0  0  0  0  0
    5.0973   -2.3985   -0.7160 C   0  0  0  0  0  0  0  0  0  0  0  0
    6.5037   -3.0003   -0.9017 C   0  0  0  0  0  0  0  0  0  0  0  0
    7.6075   -2.1161   -0.3034 C   0  0  0  0  0  0  0  0  0  0  0  0
    6.5547   -4.3787   -0.2286 C   0  0  0  0  0  0  0  0  0  0  0  0
   -7.7579   -0.2009    1.3504 O   0  0  0  0  0  0  0  0  0  0  0  0
  1  2  1  0  0  0  0
  1 10  1  0  0  0  0
  2  3  1  0  0  0  0
  3  4  1  0  0  0  0
  3 28  1  0  0  0  0
  4  5  1  0  0  0  0
  5  6  2  0  0  0  0
  5 10  1  0  0  0  0
  6  7  1  0  0  0  0
  7  8  1  0  0  0  0
  8  9  1  0  0  0  0
  8 14  1  0  0  0  0
  9 10  1  0  0  0  0
  9 11  1  0  0  0  0
 10 19  1  0  0  0  0
 11 12  1  0  0  0  0
 12 13  1  0  0  0  0
 13 14  1  0  0  0  0
 13 17  1  0  0  0  0
 13 18  1  0  0  0  0
 14 15  1  0  0  0  0
 15 16  1  0  0  0  0
 16 17  1  0  0  0  0
 17 20  1  0  0  0  0
 20 21  1  0  0  0  0
 20 22  1  0  0  0  0
 22 23  1  0  0  0  0
 23 24  1  0  0  0  0
 24 25  1  0  0  0  0
 25 26  1  0  0  0  0
 25 27  1  0  0  0  0
M  END
$$$$
CLR_2rh1_C_413
  PyMOL2.2          3D                             0

 28 31  0  0  1  0  0  0  0  0999 V2000
   -5.0690   -0.7568    0.2069 C   0  0  0  0  0  0  0  0  0  0  0  0
   -6.5915   -0.5373    0.2665 C   0  0  0  0  0  0  0  0  0  0  0  0
   -6.8921    0.8685    0.7802 C   0  0  3  0  0  0  0  0  0  0  0  0
   -6.2135    1.9356   -0.0866 C   0  0  0  0  0  0  0  0  0  0  0  0
   -4.7173    1.6996   -0.2356 C   0  0  0  0  0  0  0  0  0  0  0  0
   -3.8589    2.7149   -0.0466 C   0  0  0  0  0  0  0  0  0  0  0  0
   -2.3585    2.5828   -0.1683 C   0  0  0  0  0  0  0  0  0  0  0  0
   -1.9018    1.2971   -0.8794 C   0  0  3  0  0  0  0  0  0  0  0  0
   -2.7351    0.0921   -0.3756 C   0  0  3  0  0  0  0  0  0  0  0  0
   -4.2761    0.2827   -0.6400 C   0  0  3  0  0  0  0  0  0  0  0  0
   -2.1608   -1.2675   -0.8615 C   0  0  0  0  0  0  0  0  0  0  0  0
   -0.6377   -1.4038   -0.6646 C   0  0  0  0  0  0  0  0  0  0  0  0
    0.1497   -0.2400   -1.3094 C   0  0  3  0  0  0  0  0  0  0  0  0
   -0.4014    1.0339   -0.6367 C   0  0  3  0  0  0  0  0  0  0  0  0
    0.5743    2.1314   -1.0542 C   0  0  0  0  0  0  0  0  0  0  0  0
    1.9228    1.4016   -1.0710 C   0  0  0  0  0  0  0  0  0  0  0  0
    1.6481   -0.1148   -0.9071 C   0  0  3  0  0  0  0  0  0  0  0  0
   -0.0070   -0.2621   -2.8548 C   0  0  0  0  0  0  0  0  0  0  0  0
   -4.6223    0.0946   -2.1374 C   0  0  0  0  0  0  0  0  0  0  0  0
    2.7374   -0.9809   -1.6126 C   0  0  3  0  0  0  0  0  0  0  0  0
    2.4446   -2.4900   -1.5013 C   0  0  0  0  0  0  0  0  0  0  0  0
    4.1338   -0.6745   -1.0125 C   0  0  0  0  0  0  0  0  0  0  0  0
    5.3093   -1.3704   -1.7224 C   0  0  0  0  0  0  0  0  0  0  0  0
    6.6959   -0.7964   -1.3747 C   0  0  0  0  0  0  0  0  0  0  0  0
    7.1246   -0.9570    0.1015 C   0  0  0  0  0  0  0  0  0  0  0  0
    8.6475   -1.1318    0.1838 C   0  0  0  0  0  0  0  0  0  0  0  0
    6.7504    0.2632    0.9596 C   0  0  0  0  0  0  0  0  0  0  0  0
   -8.2915    1.0524    0.7767 O   0  0  0  0  0  0  0  0  0  0  0  0
  1  2  1  0  0  0  0
  1 10  1  0  0  0  0
  2  3  1  0  0  0  0
  3  4  1  0  0  0  0
  3 28  1  0  0  0  0
  4  5  1  0  0  0  0
  5  6  2  0  0  0  0
  5 10  1  0  0  0  0
  6  7  1  0  0  0  0
  7  8  1  0  0  0  0
  8  9  1  0  0  0  0
  8 14  1  0  0  0  0
  9 10  1  0  0  0  0
  9 11  1  0  0  0  0
 10 19  1  0  0  0  0
 11 12  1  0  0  0  0
 12 13  1  0  0  0  0
 13 14  1  0  0  0  0
 13 17  1  0  0  0  0
 13 18  1  0  0  0  0
 14 15  1  0  0  0  0
 15 16  1  0  0  0  0
 16 17  1  0  0  0  0
 17 20  1  0  0  0  0
 20 21  1  0  0  0  0
 20 22  1  0  0  0  0
 22 23  1  0  0  0  0
 23 24  1  0  0  0  0
 24 25  1  0  0  0  0
 25 26  1  0  0  0  0
 25 27  1  0  0  0  0
M  END
$$$$
CLR_2rh1_C_413
  PyMOL2.2          3D                             0

 28 31  0  0  1  0  0  0  0  0999 V2000
   -5.0633   -0.7617    0.2007 C   0  0  0  0  0  0  0  0  0  0  0  0
   -6.5856   -0.5447    0.2727 C   0  0  0  0  0  0  0  0  0  0  0  0
   -6.8842    0.8574    0.8002 C   0  0  3  0  0  0  0  0  0  0  0  0
   -6.2120    1.9309   -0.0619 C   0  0  0  0  0  0  0  0  0  0  0  0
   -4.7172    1.6982   -0.2227 C   0  0  0  0  0  0  0  0  0  0  0  0
   -3.8575    2.7130   -0.0302 C   0  0  0  0  0  0  0  0  0  0  0  0
   -2.3581    2.5825   -0.1611 C   0  0  0  0  0  0  0  0  0  0  0  0
   -1.9064    1.3055   -0.8901 C   0  0  3  0  0  0  0  0  0  0  0  0
   -2.7339    0.0933   -0.3910 C   0  0  3  0  0  0  0  0  0  0  0  0
   -4.2764    0.2857   -0.6426 C   0  0  3  0  0  0  0  0  0  0  0  0
   -2.1627   -1.2627   -0.8922 C   0  0  0  0  0  0  0  0  0  0  0  0
   -0.6390   -1.4052   -0.7025 C   0  0  0  0  0  0  0  0  0  0  0  0
    0.1418   -0.2340   -1.3378 C   0  0  3  0  0  0  0  0  0  0  0  0
   -0.4038    1.0420   -0.6616 C   0  0  3  0  0  0  0  0  0  0  0  0
    0.5797    2.1353   -1.0807 C   0  0  0  0  0  0  0  0  0  0  0  0
    1.9330    1.4106   -1.0953 C   0  0  0  0  0  0  0  0  0  0  0  0
    1.6357   -0.0981   -0.9215 C   0  0  3  0  0  0  0  0  0  0  0  0
   -0.0383   -0.2584   -2.8766 C   0  0  0  0  0  0  0  0  0  0  0  0
   -4.6334    0.1093   -2.1396 C   0  0  0  0  0  0  0  0  0  0  0  0
    2.7710   -1.0270   -1.4541 C   0  0  3  0  0  0  0  0  0  0  0  0
    3.1012   -0.9575   -2.9613 C   0  0  0  0  0  0  0  0  0  0  0  0
    2.5264   -2.4936   -1.0388 C   0  0  0  0  0  0  0  0  0  0  0  0
    3.7814   -3.3799   -1.1245 C   0  0  0  0  0  0  0  0  0  0  0  0
    3.4791   -4.7918   -0.5958 C   0  0  0  0  0  0  0  0  0  0  0  0
    4.7195   -5.7042   -0.5426 C   0  0  0  0  0  0  0  0  0  0  0  0
    4.3399   -7.0317    0.1258 C   0  0  0  0  0  0  0  0  0  0  0  0
    5.2960   -5.9989   -1.9349 C   0  0  0  0  0  0  0  0  0  0  0  0
   -8.2837    1.0396    0.8069 O   0  0  0  0  0  0  0  0  0  0  0  0
  1  2  1  0  0  0  0
  1 10  1  0  0  0  0
  2  3  1  0  0  0  0
  3  4  1  0  0  0  0
  3 28  1  0  0  0  0
  4  5  1  0  0  0  0
  5  6  2  0  0  0  0
  5 10  1  0  0  0  0
  6  7  1  0  0  0  0
  7  8  1  0  0  0  0
  8  9  1  0  0  0  0
  8 14  1  0  0  0  0
  9 10  1  0  0  0  0
  9 11  1  0  0  0  0
 10 19  1  0  0  0  0
 11 12  1  0  0  0  0
 12 13  1  0  0  0  0
 13 14  1  0  0  0  0
 13 17  1  0  0  0  0
 13 18  1  0  0  0  0
 14 15  1  0  0  0  0
 15 16  1  0  0  0  0
 16 17  1  0  0  0  0
 17 20  1  0  0  0  0
 20 21  1  0  0  0  0
 20 22  1  0  0  0  0
 22 23  1  0  0  0  0
 23 24  1  0  0  0  0
 24 25  1  0  0  0  0
 25 26  1  0  0  0  0
 25 27  1  0  0  0  0
M  END
$$$$
CLR_2rh1_C_413
  PyMOL2.2          3D                             0

 28 31  0  0  1  0  0  0  0  0999 V2000
   -5.0641   -0.7616    0.2001 C   0  0  0  0  0  0  0  0  0  0  0  0
   -6.5866   -0.5444    0.2711 C   0  0  0  0  0  0  0  0  0  0  0  0
   -6.8854    0.8575    0.7983 C   0  0  3  0  0  0  0  0  0  0  0  0
   -6.2123    1.9321   -0.0619 C   0  0  0  0  0  0  0  0  0  0  0  0
   -4.7169    1.6980   -0.2211 C   0  0  0  0  0  0  0  0  0  0  0  0
   -3.8575    2.7123   -0.0248 C   0  0  0  0  0  0  0  0  0  0  0  0
   -2.3579    2.5807   -0.1551 C   0  0  0  0  0  0  0  0  0  0  0  0
   -1.9068    1.3055   -0.8886 C   0  0  3  0  0  0  0  0  0  0  0  0
   -2.7343    0.0932   -0.3920 C   0  0  3  0  0  0  0  0  0  0  0  0
   -4.2778    0.2865   -0.6431 C   0  0  3  0  0  0  0  0  0  0  0  0
   -2.1639   -1.2627   -0.8960 C   0  0  0  0  0  0  0  0  0  0  0  0
   -0.6410   -1.4039   -0.7034 C   0  0  0  0  0  0  0  0  0  0  0  0
    0.1431   -0.2353   -1.3361 C   0  0  3  0  0  0  0  0  0  0  0  0
   -0.4027    1.0418   -0.6630 C   0  0  3  0  0  0  0  0  0  0  0  0
    0.5788    2.1339   -1.0861 C   0  0  0  0  0  0  0  0  0  0  0  0
    1.9312    1.4062   -1.1117 C   0  0  0  0  0  0  0  0  0  0  0  0
    1.6371   -0.1003   -0.9161 C   0  0  3  0  0  0  0  0  0  0  0  0
   -0.0438   -0.2589   -2.8748 C   0  0  0  0  0  0  0  0  0  0  0  0
   -4.6347    0.1114   -2.1395 C   0  0  0  0  0  0  0  0  0  0  0  0
    2.7847   -1.0204   -1.4441 C   0  0  3  0  0  0  0  0  0  0  0  0
    3.0757   -0.9908   -2.9588 C   0  0  0  0  0  0  0  0  0  0  0  0
    2.6639   -2.5066   -1.0425 C   0  0  0  0  0  0  0  0  0  0  0  0
    2.6448   -2.7543    0.4775 C   0  0  0  0  0  0  0  0  0  0  0  0
    2.8381   -4.2372    0.8463 C   0  0  0  0  0  0  0  0  0  0  0  0
    1.7476   -5.2056    0.3447 C   0  0  0  0  0  0  0  0  0  0  0  0
    2.1564   -6.6441    0.6875 C   0  0  0  0  0  0  0  0  0  0  0  0
    0.3777   -4.9215    0.9780 C   0  0  0  0  0  0  0  0  0  0  0  0
   -8.2853    1.0402    0.8040 O   0  0  0  0  0  0  0  0  0  0  0  0
  1  2  1  0  0  0  0
  1 10  1  0  0  0  0
  2  3  1  0  0  0  0
  3  4  1  0  0  0  0
  3 28  1  0  0  0  0
  4  5  1  0  0  0  0
  5  6  2  0  0  0  0
  5 10  1  0  0  0  0
  6  7  1  0  0  0  0
  7  8  1  0  0  0  0
  8  9  1  0  0  0  0
  8 14  1  0  0  0  0
  9 10  1  0  0  0  0
  9 11  1  0  0  0  0
 10 19  1  0  0  0  0
 11 12  1  0  0  0  0
 12 13  1  0  0  0  0
 13 14  1  0  0  0  0
 13 17  1  0  0  0  0
 13 18  1  0  0  0  0
 14 15  1  0  0  0  0
 15 16  1  0  0  0  0
 16 17  1  0  0  0  0
 17 20  1  0  0  0  0
 20 21  1  0  0  0  0
 20 22  1  0  0  0  0
 22 23  1  0  0  0  0
 23 24  1  0  0  0  0
 24 25  1  0  0  0  0
 25 26  1  0  0  0  0
 25 27  1  0  0  0  0
M  END
$$$$
CLR_2rh1_C_413
  PyMOL2.2          3D                             0

 28 31  0  0  1  0  0  0  0  0999 V2000
   -5.0658   -0.7614    0.1980 C   0  0  0  0  0  0  0  0  0  0  0  0
   -6.5886   -0.5432    0.2671 C   0  0  0  0  0  0  0  0  0  0  0  0
   -6.8869    0.8586    0.7940 C   0  0  3  0  0  0  0  0  0  0  0  0
   -6.2125    1.9326   -0.0650 C   0  0  0  0  0  0  0  0  0  0  0  0
   -4.7163    1.6980   -0.2214 C   0  0  0  0  0  0  0  0  0  0  0  0
   -3.8569    2.7121   -0.0243 C   0  0  0  0  0  0  0  0  0  0  0  0
   -2.3571    2.5800   -0.1505 C   0  0  0  0  0  0  0  0  0  0  0  0
   -1.9059    1.3052   -0.8848 C   0  0  3  0  0  0  0  0  0  0  0  0
   -2.7344    0.0922   -0.3905 C   0  0  3  0  0  0  0  0  0  0  0  0
   -4.2771    0.2859   -0.6432 C   0  0  3  0  0  0  0  0  0  0  0  0
   -2.1640   -1.2642   -0.8917 C   0  0  0  0  0  0  0  0  0  0  0  0
   -0.6412   -1.4020   -0.6927 C   0  0  0  0  0  0  0  0  0  0  0  0
    0.1425   -0.2365   -1.3331 C   0  0  3  0  0  0  0  0  0  0  0  0
   -0.4018    1.0412   -0.6596 C   0  0  3  0  0  0  0  0  0  0  0  0
    0.5791    2.1329   -1.0870 C   0  0  0  0  0  0  0  0  0  0  0  0
    1.9317    1.4081   -1.1110 C   0  0  0  0  0  0  0  0  0  0  0  0
    1.6390   -0.1002   -0.9209 C   0  0  3  0  0  0  0  0  0  0  0  0
   -0.0477   -0.2636   -2.8713 C   0  0  0  0  0  0  0  0  0  0  0  0
   -4.6314    0.1109   -2.1403 C   0  0  0  0  0  0  0  0  0  0  0  0
    2.7848   -1.0152   -1.4601 C   0  0  3  0  0  0  0  0  0  0  0  0
    3.0798   -0.9713   -2.9738 C   0  0  0  0  0  0  0  0  0  0  0  0
    2.6546   -2.5095   -1.0800 C   0  0  0  0  0  0  0  0  0  0  0  0
    2.5309   -2.8389    0.4203 C   0  0  0  0  0  0  0  0  0  0  0  0
    3.7162   -2.3241    1.2560 C   0  0  0  0  0  0  0  0  0  0  0  0
    3.6919   -2.8163    2.7150 C   0  0  0  0  0  0  0  0  0  0  0  0
    4.9730   -2.3581    3.4227 C   0  0  0  0  0  0  0  0  0  0  0  0
    2.4791   -2.2848    3.4928 C   0  0  0  0  0  0  0  0  0  0  0  0
   -8.2870    1.0416    0.7965 O   0  0  0  0  0  0  0  0  0  0  0  0
  1  2  1  0  0  0  0
  1 10  1  0  0  0  0
  2  3  1  0  0  0  0
  3  4  1  0  0  0  0
  3 28  1  0  0  0  0
  4  5  1  0  0  0  0
  5  6  2  0  0  0  0
  5 10  1  0  0  0  0
  6  7  1  0  0  0  0
  7  8  1  0  0  0  0
  8  9  1  0  0  0  0
  8 14  1  0  0  0  0
  9 10  1  0  0  0  0
  9 11  1  0  0  0  0
 10 19  1  0  0  0  0
 11 12  1  0  0  0  0
 12 13  1  0  0  0  0
 13 14  1  0  0  0  0
 13 17  1  0  0  0  0
 13 18  1  0  0  0  0
 14 15  1  0  0  0  0
 15 16  1  0  0  0  0
 16 17  1  0  0  0  0
 17 20  1  0  0  0  0
 20 21  1  0  0  0  0
 20 22  1  0  0  0  0
 22 23  1  0  0  0  0
 23 24  1  0  0  0  0
 24 25  1  0  0  0  0
 25 26  1  0  0  0  0
 25 27  1  0  0  0  0
M  END
$$$$
CLR_2rh1_C_413
  PyMOL2.2          3D                             0

 28 31  0  0  1  0  0  0  0  0999 V2000
   -5.0806   -0.7710    0.1812 C   0  0  0  0  0  0  0  0  0  0  0  0
   -6.6043   -0.5566    0.2334 C   0  0  0  0  0  0  0  0  0  0  0  0
   -6.9105    0.8467    0.7497 C   0  0  3  0  0  0  0  0  0  0  0  0
   -6.2310    1.9173   -0.1109 C   0  0  0  0  0  0  0  0  0  0  0  0
   -4.7340    1.6870   -0.2529 C   0  0  0  0  0  0  0  0  0  0  0  0
   -3.8793    2.7050   -0.0576 C   0  0  0  0  0  0  0  0  0  0  0  0
   -2.3783    2.5777   -0.1703 C   0  0  0  0  0  0  0  0  0  0  0  0
   -1.9135    1.2951   -0.8829 C   0  0  3  0  0  0  0  0  0  0  0  0
   -2.7450    0.0859   -0.3862 C   0  0  3  0  0  0  0  0  0  0  0  0
   -4.2858    0.2732   -0.6581 C   0  0  3  0  0  0  0  0  0  0  0  0
   -2.1659   -1.2722   -0.8724 C   0  0  0  0  0  0  0  0  0  0  0  0
   -0.6425   -1.4061   -0.6711 C   0  0  0  0  0  0  0  0  0  0  0  0
    0.1397   -0.2339   -1.3043 C   0  0  3  0  0  0  0  0  0  0  0  0
   -0.4141    1.0373   -0.6306 C   0  0  3  0  0  0  0  0  0  0  0  0
    0.5671    2.1359   -1.0345 C   0  0  0  0  0  0  0  0  0  0  0  0
    1.9160    1.4063   -1.0648 C   0  0  0  0  0  0  0  0  0  0  0  0
    1.6328   -0.1046   -0.8897 C   0  0  3  0  0  0  0  0  0  0  0  0
   -0.0082   -0.2575   -2.8501 C   0  0  0  0  0  0  0  0  0  0  0  0
   -4.6232    0.0874   -2.1584 C   0  0  0  0  0  0  0  0  0  0  0  0
    2.7163   -0.9808   -1.5868 C   0  0  3  0  0  0  0  0  0  0  0  0
    2.4712   -2.4894   -1.4035 C   0  0  0  0  0  0  0  0  0  0  0  0
    4.1643   -0.6508   -1.1427 C   0  0  0  0  0  0  0  0  0  0  0  0
    4.4930   -0.9238    0.3378 C   0  0  0  0  0  0  0  0  0  0  0  0
    5.8519   -0.3677    0.8122 C   0  0  0  0  0  0  0  0  0  0  0  0
    7.1622   -0.9275    0.2108 C   0  0  0  0  0  0  0  0  0  0  0  0
    7.1481   -2.4539    0.0517 C   0  0  0  0  0  0  0  0  0  0  0  0
    7.5595   -0.2599   -1.1142 C   0  0  0  0  0  0  0  0  0  0  0  0
   -8.3116    1.0270    0.7392 O   0  0  0  0  0  0  0  0  0  0  0  0
  1  2  1  0  0  0  0
  1 10  1  0  0  0  0
  2  3  1  0  0  0  0
  3  4  1  0  0  0  0
  3 28  1  0  0  0  0
  4  5  1  0  0  0  0
  5  6  2  0  0  0  0
  5 10  1  0  0  0  0
  6  7  1  0  0  0  0
  7  8  1  0  0  0  0
  8  9  1  0  0  0  0
  8 14  1  0  0  0  0
  9 10  1  0  0  0  0
  9 11  1  0  0  0  0
 10 19  1  0  0  0  0
 11 12  1  0  0  0  0
 12 13  1  0  0  0  0
 13 14  1  0  0  0  0
 13 17  1  0  0  0  0
 13 18  1  0  0  0  0
 14 15  1  0  0  0  0
 15 16  1  0  0  0  0
 16 17  1  0  0  0  0
 17 20  1  0  0  0  0
 20 21  1  0  0  0  0
 20 22  1  0  0  0  0
 22 23  1  0  0  0  0
 23 24  1  0  0  0  0
 24 25  1  0  0  0  0
 25 26  1  0  0  0  0
 25 27  1  0  0  0  0
M  END
$$$$
CLR_2rh1_C_413
  PyMOL2.2          3D                             0

 28 31  0  0  1  0  0  0  0  0999 V2000
   -5.0934   -0.7403    0.2020 C   0  0  0  0  0  0  0  0  0  0  0  0
   -6.6149   -0.5116    0.2487 C   0  0  0  0  0  0  0  0  0  0  0  0
   -6.9089    0.8969    0.7614 C   0  0  3  0  0  0  0  0  0  0  0  0
   -6.2073    1.9655   -0.0847 C   0  0  0  0  0  0  0  0  0  0  0  0
   -4.7142    1.7107   -0.2327 C   0  0  0  0  0  0  0  0  0  0  0  0
   -3.8448    2.7160   -0.0393 C   0  0  0  0  0  0  0  0  0  0  0  0
   -2.3460    2.5677   -0.1572 C   0  0  0  0  0  0  0  0  0  0  0  0
   -1.9012    1.2801   -0.8710 C   0  0  3  0  0  0  0  0  0  0  0  0
   -2.7488    0.0832   -0.3732 C   0  0  3  0  0  0  0  0  0  0  0  0
   -4.2874    0.2914   -0.6410 C   0  0  3  0  0  0  0  0  0  0  0  0
   -2.1882   -1.2814   -0.8643 C   0  0  0  0  0  0  0  0  0  0  0  0
   -0.6670   -1.4359   -0.6646 C   0  0  0  0  0  0  0  0  0  0  0  0
    0.1345   -0.2772   -1.3016 C   0  0  3  0  0  0  0  0  0  0  0  0
   -0.4040    1.0005   -0.6256 C   0  0  3  0  0  0  0  0  0  0  0  0
    0.5852    2.0877   -1.0369 C   0  0  0  0  0  0  0  0  0  0  0  0
    1.9253    1.3438   -1.0534 C   0  0  0  0  0  0  0  0  0  0  0  0
    1.6326   -0.1699   -0.8932 C   0  0  3  0  0  0  0  0  0  0  0  0
   -0.0186   -0.2914   -2.8469 C   0  0  0  0  0  0  0  0  0  0  0  0
   -4.6316    0.1106   -2.1391 C   0  0  0  0  0  0  0  0  0  0  0  0
    2.7082   -1.0493   -1.6015 C   0  0  3  0  0  0  0  0  0  0  0  0
    2.3941   -2.5526   -1.4828 C   0  0  0  0  0  0  0  0  0  0  0  0
    4.1128   -0.7716   -1.0051 C   0  0  0  0  0  0  0  0  0  0  0  0
    5.3310   -1.4394   -1.6795 C   0  0  0  0  0  0  0  0  0  0  0  0
    5.5472   -1.0510   -3.1565 C   0  0  0  0  0  0  0  0  0  0  0  0
    4.9278   -1.9994   -4.2054 C   0  0  0  0  0  0  0  0  0  0  0  0
    5.0312   -1.3519   -5.5921 C   0  0  0  0  0  0  0  0  0  0  0  0
    5.6378   -3.3609   -4.2488 C   0  0  0  0  0  0  0  0  0  0  0  0
   -8.3044    1.0985    0.7455 O   0  0  0  0  0  0  0  0  0  0  0  0
  1  2  1  0  0  0  0
  1 10  1  0  0  0  0
  2  3  1  0  0  0  0
  3  4  1  0  0  0  0
  3 28  1  0  0  0  0
  4  5  1  0  0  0  0
  5  6  2  0  0  0  0
  5 10  1  0  0  0  0
  6  7  1  0  0  0  0
  7  8  1  0  0  0  0
  8  9  1  0  0  0  0
  8 14  1  0  0  0  0
  9 10  1  0  0  0  0
  9 11  1  0  0  0  0
 10 19  1  0  0  0  0
 11 12  1  0  0  0  0
 12 13  1  0  0  0  0
 13 14  1  0  0  0  0
 13 17  1  0  0  0  0
 13 18  1  0  0  0  0
 14 15  1  0  0  0  0
 15 16  1  0  0  0  0
 16 17  1  0  0  0  0
 17 20  1  0  0  0  0
 20 21  1  0  0  0  0
 20 22  1  0  0  0  0
 22 23  1  0  0  0  0
 23 24  1  0  0  0  0
 24 25  1  0  0  0  0
 25 26  1  0  0  0  0
 25 27  1  0  0  0  0
M  END
$$$$
CLR_2rh1_C_413
  PyMOL2.2          3D                             0

 28 31  0  0  1  0  0  0  0  0999 V2000
   -5.0785   -0.7719    0.1817 C   0  0  0  0  0  0  0  0  0  0  0  0
   -6.6033   -0.5580    0.2352 C   0  0  0  0  0  0  0  0  0  0  0  0
   -6.9098    0.8452    0.7518 C   0  0  3  0  0  0  0  0  0  0  0  0
   -6.2316    1.9165   -0.1088 C   0  0  0  0  0  0  0  0  0  0  0  0
   -4.7340    1.6865   -0.2514 C   0  0  0  0  0  0  0  0  0  0  0  0
   -3.8798    2.7046   -0.0561 C   0  0  0  0  0  0  0  0  0  0  0  0
   -2.3790    2.5785   -0.1707 C   0  0  0  0  0  0  0  0  0  0  0  0
   -1.9144    1.2961   -0.8842 C   0  0  3  0  0  0  0  0  0  0  0  0
   -2.7448    0.0863   -0.3883 C   0  0  3  0  0  0  0  0  0  0  0  0
   -4.2861    0.2736   -0.6589 C   0  0  3  0  0  0  0  0  0  0  0  0
   -2.1653   -1.2707   -0.8748 C   0  0  0  0  0  0  0  0  0  0  0  0
   -0.6425   -1.4051   -0.6726 C   0  0  0  0  0  0  0  0  0  0  0  0
    0.1413   -0.2326   -1.3062 C   0  0  3  0  0  0  0  0  0  0  0  0
   -0.4145    1.0384   -0.6337 C   0  0  3  0  0  0  0  0  0  0  0  0
    0.5664    2.1364   -1.0398 C   0  0  0  0  0  0  0  0  0  0  0  0
    1.9152    1.4058   -1.0619 C   0  0  0  0  0  0  0  0  0  0  0  0
    1.6331   -0.1060   -0.8875 C   0  0  3  0  0  0  0  0  0  0  0  0
   -0.0086   -0.2538   -2.8515 C   0  0  0  0  0  0  0  0  0  0  0  0
   -4.6247    0.0882   -2.1581 C   0  0  0  0  0  0  0  0  0  0  0  0
    2.7175   -0.9875   -1.5794 C   0  0  3  0  0  0  0  0  0  0  0  0
    2.4488   -2.4978   -1.4703 C   0  0  0  0  0  0  0  0  0  0  0  0
    4.1753   -0.6929   -1.1296 C   0  0  0  0  0  0  0  0  0  0  0  0
    4.7238   -1.3165    0.1720 C   0  0  0  0  0  0  0  0  0  0  0  0
    4.0016   -0.8869    1.4624 C   0  0  0  0  0  0  0  0  0  0  0  0
    4.7100   -1.2521    2.7839 C   0  0  0  0  0  0  0  0  0  0  0  0
    4.9606   -2.7611    2.9099 C   0  0  0  0  0  0  0  0  0  0  0  0
    6.0307   -0.4915    2.9740 C   0  0  0  0  0  0  0  0  0  0  0  0
   -8.3108    1.0238    0.7420 O   0  0  0  0  0  0  0  0  0  0  0  0
  1  2  1  0  0  0  0
  1 10  1  0  0  0  0
  2  3  1  0  0  0  0
  3  4  1  0  0  0  0
  3 28  1  0  0  0  0
  4  5  1  0  0  0  0
  5  6  2  0  0  0  0
  5 10  1  0  0  0  0
  6  7  1  0  0  0  0
  7  8  1  0  0  0  0
  8  9  1  0  0  0  0
  8 14  1  0  0  0  0
  9 10  1  0  0  0  0
  9 11  1  0  0  0  0
 10 19  1  0  0  0  0
 11 12  1  0  0  0  0
 12 13  1  0  0  0  0
 13 14  1  0  0  0  0
 13 17  1  0  0  0  0
 13 18  1  0  0  0  0
 14 15  1  0  0  0  0
 15 16  1  0  0  0  0
 16 17  1  0  0  0  0
 17 20  1  0  0  0  0
 20 21  1  0  0  0  0
 20 22  1  0  0  0  0
 22 23  1  0  0  0  0
 23 24  1  0  0  0  0
 24 25  1  0  0  0  0
 25 26  1  0  0  0  0
 25 27  1  0  0  0  0
M  END
$$$$
CLR_2rh1_C_413
  PyMOL2.2          3D                             0

 28 31  0  0  1  0  0  0  0  0999 V2000
   -5.0684   -0.7566    0.2076 C   0  0  0  0  0  0  0  0  0  0  0  0
   -6.5918   -0.5386    0.2665 C   0  0  0  0  0  0  0  0  0  0  0  0
   -6.8926    0.8676    0.7806 C   0  0  3  0  0  0  0  0  0  0  0  0
   -6.2144    1.9346   -0.0858 C   0  0  0  0  0  0  0  0  0  0  0  0
   -4.7183    1.6991   -0.2349 C   0  0  0  0  0  0  0  0  0  0  0  0
   -3.8590    2.7150   -0.0469 C   0  0  0  0  0  0  0  0  0  0  0  0
   -2.3595    2.5835   -0.1675 C   0  0  0  0  0  0  0  0  0  0  0  0
   -1.9029    1.2977   -0.8795 C   0  0  3  0  0  0  0  0  0  0  0  0
   -2.7346    0.0932   -0.3756 C   0  0  3  0  0  0  0  0  0  0  0  0
   -4.2766    0.2832   -0.6398 C   0  0  3  0  0  0  0  0  0  0  0  0
   -2.1601   -1.2647   -0.8637 C   0  0  0  0  0  0  0  0  0  0  0  0
   -0.6373   -1.4005   -0.6646 C   0  0  0  0  0  0  0  0  0  0  0  0
    0.1540   -0.2377   -1.3094 C   0  0  3  0  0  0  0  0  0  0  0  0
   -0.4012    1.0349   -0.6375 C   0  0  3  0  0  0  0  0  0  0  0  0
    0.5693    2.1315   -1.0615 C   0  0  0  0  0  0  0  0  0  0  0  0
    1.9185    1.4040   -1.0617 C   0  0  0  0  0  0  0  0  0  0  0  0
    1.6555   -0.1128   -0.9083 C   0  0  3  0  0  0  0  0  0  0  0  0
   -0.0039   -0.2595   -2.8540 C   0  0  0  0  0  0  0  0  0  0  0  0
   -4.6227    0.0943   -2.1369 C   0  0  0  0  0  0  0  0  0  0  0  0
    2.7352   -0.9965   -1.6148 C   0  0  3  0  0  0  0  0  0  0  0  0
    2.4043   -2.4972   -1.4963 C   0  0  0  0  0  0  0  0  0  0  0  0
    4.1687   -0.8298   -1.0314 C   0  0  0  0  0  0  0  0  0  0  0  0
    4.9993    0.4140   -1.4058 C   0  0  0  0  0  0  0  0  0  0  0  0
    5.1930    0.5913   -2.9261 C   0  0  0  0  0  0  0  0  0  0  0  0
    6.0883    1.7720   -3.3539 C   0  0  0  0  0  0  0  0  0  0  0  0
    5.5138    3.1249   -2.9128 C   0  0  0  0  0  0  0  0  0  0  0  0
    7.5301    1.6335   -2.8450 C   0  0  0  0  0  0  0  0  0  0  0  0
   -8.2923    1.0515    0.7769 O   0  0  0  0  0  0  0  0  0  0  0  0
  1  2  1  0  0  0  0
  1 10  1  0  0  0  0
  2  3  1  0  0  0  0
  3  4  1  0  0  0  0
  3 28  1  0  0  0  0
  4  5  1  0  0  0  0
  5  6  2  0  0  0  0
  5 10  1  0  0  0  0
  6  7  1  0  0  0  0
  7  8  1  0  0  0  0
  8  9  1  0  0  0  0
  8 14  1  0  0  0  0
  9 10  1  0  0  0  0
  9 11  1  0  0  0  0
 10 19  1  0  0  0  0
 11 12  1  0  0  0  0
 12 13  1  0  0  0  0
 13 14  1  0  0  0  0
 13 17  1  0  0  0  0
 13 18  1  0  0  0  0
 14 15  1  0  0  0  0
 15 16  1  0  0  0  0
 16 17  1  0  0  0  0
 17 20  1  0  0  0  0
 20 21  1  0  0  0  0
 20 22  1  0  0  0  0
 22 23  1  0  0  0  0
 23 24  1  0  0  0  0
 24 25  1  0  0  0  0
 25 26  1  0  0  0  0
 25 27  1  0  0  0  0
M  END
$$$$
CLR_2rh1_C_413
  PyMOL2.2          3D                             0

 28 31  0  0  1  0  0  0  0  0999 V2000
   -5.0478   -0.7689    0.1980 C   0  0  0  0  0  0  0  0  0  0  0  0
   -6.5726   -0.5605    0.2633 C   0  0  0  0  0  0  0  0  0  0  0  0
   -6.8810    0.8402    0.7873 C   0  0  3  0  0  0  0  0  0  0  0  0
   -6.2127    1.9167   -0.0749 C   0  0  0  0  0  0  0  0  0  0  0  0
   -4.7154    1.6929   -0.2297 C   0  0  0  0  0  0  0  0  0  0  0  0
   -3.8648    2.7146   -0.0385 C   0  0  0  0  0  0  0  0  0  0  0  0
   -2.3644    2.5954   -0.1646 C   0  0  0  0  0  0  0  0  0  0  0  0
   -1.9007    1.3188   -0.8852 C   0  0  3  0  0  0  0  0  0  0  0  0
   -2.7210    0.1002   -0.3845 C   0  0  3  0  0  0  0  0  0  0  0  0
   -4.2646    0.2817   -0.6443 C   0  0  3  0  0  0  0  0  0  0  0  0
   -2.1436   -1.2632   -0.8664 C   0  0  0  0  0  0  0  0  0  0  0  0
   -0.6146   -1.3912   -0.6981 C   0  0  0  0  0  0  0  0  0  0  0  0
    0.1379   -0.2027   -1.3305 C   0  0  3  0  0  0  0  0  0  0  0  0
   -0.3986    1.0662   -0.6439 C   0  0  3  0  0  0  0  0  0  0  0  0
    0.6013    2.1558   -1.0431 C   0  0  0  0  0  0  0  0  0  0  0  0
    1.9467    1.4123   -1.1292 C   0  0  0  0  0  0  0  0  0  0  0  0
    1.6263   -0.0848   -0.9148 C   0  0  3  0  0  0  0  0  0  0  0  0
   -0.0479   -0.2245   -2.8699 C   0  0  0  0  0  0  0  0  0  0  0  0
   -4.6136    0.1002   -2.1418 C   0  0  0  0  0  0  0  0  0  0  0  0
    2.6403   -1.1274   -1.4773 C   0  0  3  0  0  0  0  0  0  0  0  0
    3.7629   -1.3386   -0.4425 C   0  0  0  0  0  0  0  0  0  0  0  0
    3.2813   -0.7788   -2.8471 C   0  0  0  0  0  0  0  0  0  0  0  0
    4.0739   -1.9003   -3.5474 C   0  0  0  0  0  0  0  0  0  0  0  0
    3.2113   -3.1289   -3.9004 C   0  0  0  0  0  0  0  0  0  0  0  0
    3.9061   -4.2147   -4.7467 C   0  0  0  0  0  0  0  0  0  0  0  0
    4.2947   -3.7127   -6.1443 C   0  0  0  0  0  0  0  0  0  0  0  0
    5.1414   -4.7962   -4.0466 C   0  0  0  0  0  0  0  0  0  0  0  0
   -8.2816    1.0139    0.7888 O   0  0  0  0  0  0  0  0  0  0  0  0
  1  2  1  0  0  0  0
  1 10  1  0  0  0  0
  2  3  1  0  0  0  0
  3  4  1  0  0  0  0
  3 28  1  0  0  0  0
  4  5  1  0  0  0  0
  5  6  2  0  0  0  0
  5 10  1  0  0  0  0
  6  7  1  0  0  0  0
  7  8  1  0  0  0  0
  8  9  1  0  0  0  0
  8 14  1  0  0  0  0
  9 10  1  0  0  0  0
  9 11  1  0  0  0  0
 10 19  1  0  0  0  0
 11 12  1  0  0  0  0
 12 13  1  0  0  0  0
 13 14  1  0  0  0  0
 13 17  1  0  0  0  0
 13 18  1  0  0  0  0
 14 15  1  0  0  0  0
 15 16  1  0  0  0  0
 16 17  1  0  0  0  0
 17 20  1  0  0  0  0
 20 21  1  0  0  0  0
 20 22  1  0  0  0  0
 22 23  1  0  0  0  0
 23 24  1  0  0  0  0
 24 25  1  0  0  0  0
 25 26  1  0  0  0  0
 25 27  1  0  0  0  0
M  END
$$$$
CLR_2rh1_C_413
  PyMOL2.2          3D                             0

 28 31  0  0  1  0  0  0  0  0999 V2000
   -5.0680   -0.7608    0.1983 C   0  0  0  0  0  0  0  0  0  0  0  0
   -6.5906   -0.5414    0.2639 C   0  0  0  0  0  0  0  0  0  0  0  0
   -6.8899    0.8604    0.7907 C   0  0  3  0  0  0  0  0  0  0  0  0
   -6.2120    1.9342   -0.0691 C   0  0  0  0  0  0  0  0  0  0  0  0
   -4.7167    1.6986   -0.2232 C   0  0  0  0  0  0  0  0  0  0  0  0
   -3.8567    2.7116   -0.0261 C   0  0  0  0  0  0  0  0  0  0  0  0
   -2.3577    2.5794   -0.1514 C   0  0  0  0  0  0  0  0  0  0  0  0
   -1.9052    1.3033   -0.8828 C   0  0  3  0  0  0  0  0  0  0  0  0
   -2.7356    0.0920   -0.3857 C   0  0  3  0  0  0  0  0  0  0  0  0
   -4.2781    0.2861   -0.6428 C   0  0  3  0  0  0  0  0  0  0  0  0
   -2.1635   -1.2663   -0.8817 C   0  0  0  0  0  0  0  0  0  0  0  0
   -0.6406   -1.4020   -0.6859 C   0  0  0  0  0  0  0  0  0  0  0  0
    0.1441   -0.2370   -1.3311 C   0  0  3  0  0  0  0  0  0  0  0  0
   -0.4018    1.0383   -0.6563 C   0  0  3  0  0  0  0  0  0  0  0  0
    0.5759    2.1340   -1.0797 C   0  0  0  0  0  0  0  0  0  0  0  0
    1.9307    1.4123   -1.1033 C   0  0  0  0  0  0  0  0  0  0  0  0
    1.6439   -0.1001   -0.9295 C   0  0  3  0  0  0  0  0  0  0  0  0
   -0.0462   -0.2680   -2.8680 C   0  0  0  0  0  0  0  0  0  0  0  0
   -4.6283    0.1107   -2.1401 C   0  0  0  0  0  0  0  0  0  0  0  0
    2.7855   -1.0135   -1.4840 C   0  0  3  0  0  0  0  0  0  0  0  0
    3.1296   -0.8965   -2.9846 C   0  0  0  0  0  0  0  0  0  0  0  0
    2.6116   -2.5215   -1.1934 C   0  0  0  0  0  0  0  0  0  0  0  0
    2.5312   -2.8760    0.3017 C   0  0  0  0  0  0  0  0  0  0  0  0
    2.4265   -4.4010    0.4848 C   0  0  0  0  0  0  0  0  0  0  0  0
    2.2962   -4.8924    1.9408 C   0  0  0  0  0  0  0  0  0  0  0  0
    3.5099   -4.5055    2.7974 C   0  0  0  0  0  0  0  0  0  0  0  0
    1.0111   -4.3906    2.6136 C   0  0  0  0  0  0  0  0  0  0  0  0
   -8.2890    1.0449    0.7909 O   0  0  0  0  0  0  0  0  0  0  0  0
  1  2  1  0  0  0  0
  1 10  1  0  0  0  0
  2  3  1  0  0  0  0
  3  4  1  0  0  0  0
  3 28  1  0  0  0  0
  4  5  1  0  0  0  0
  5  6  2  0  0  0  0
  5 10  1  0  0  0  0
  6  7  1  0  0  0  0
  7  8  1  0  0  0  0
  8  9  1  0  0  0  0
  8 14  1  0  0  0  0
  9 10  1  0  0  0  0
  9 11  1  0  0  0  0
 10 19  1  0  0  0  0
 11 12  1  0  0  0  0
 12 13  1  0  0  0  0
 13 14  1  0  0  0  0
 13 17  1  0  0  0  0
 13 18  1  0  0  0  0
 14 15  1  0  0  0  0
 15 16  1  0  0  0  0
 16 17  1  0  0  0  0
 17 20  1  0  0  0  0
 20 21  1  0  0  0  0
 20 22  1  0  0  0  0
 22 23  1  0  0  0  0
 23 24  1  0  0  0  0
 24 25  1  0  0  0  0
 25 26  1  0  0  0  0
 25 27  1  0  0  0  0
M  END
$$$$
CLR_2rh1_C_413
  PyMOL2.2          3D                             0

 28 31  0  0  1  0  0  0  0  0999 V2000
   -5.0644   -0.7562    0.2090 C   0  0  0  0  0  0  0  0  0  0  0  0
   -6.5884   -0.5453    0.2620 C   0  0  0  0  0  0  0  0  0  0  0  0
   -6.8968    0.8612    0.7748 C   0  0  3  0  0  0  0  0  0  0  0  0
   -6.2108    1.9362   -0.0759 C   0  0  0  0  0  0  0  0  0  0  0  0
   -4.7154    1.6985   -0.2312 C   0  0  0  0  0  0  0  0  0  0  0  0
   -3.8572    2.7146   -0.0439 C   0  0  0  0  0  0  0  0  0  0  0  0
   -2.3571    2.5839   -0.1676 C   0  0  0  0  0  0  0  0  0  0  0  0
   -1.9010    1.3000   -0.8812 C   0  0  3  0  0  0  0  0  0  0  0  0
   -2.7326    0.0929   -0.3783 C   0  0  3  0  0  0  0  0  0  0  0  0
   -4.2741    0.2841   -0.6390 C   0  0  3  0  0  0  0  0  0  0  0  0
   -2.1599   -1.2664   -0.8678 C   0  0  0  0  0  0  0  0  0  0  0  0
   -0.6362   -1.4051   -0.6752 C   0  0  0  0  0  0  0  0  0  0  0  0
    0.1475   -0.2350   -1.3115 C   0  0  3  0  0  0  0  0  0  0  0  0
   -0.4000    1.0386   -0.6394 C   0  0  3  0  0  0  0  0  0  0  0  0
    0.5803    2.1344   -1.0540 C   0  0  0  0  0  0  0  0  0  0  0  0
    1.9264    1.4004   -1.1005 C   0  0  0  0  0  0  0  0  0  0  0  0
    1.6404   -0.1090   -0.8961 C   0  0  3  0  0  0  0  0  0  0  0  0
   -0.0086   -0.2576   -2.8572 C   0  0  0  0  0  0  0  0  0  0  0  0
   -4.6233    0.0970   -2.1357 C   0  0  0  0  0  0  0  0  0  0  0  0
    2.7207   -0.9953   -1.5791 C   0  0  3  0  0  0  0  0  0  0  0  0
    2.4256   -2.5018   -1.4665 C   0  0  0  0  0  0  0  0  0  0  0  0
    4.1665   -0.7186   -1.0848 C   0  0  0  0  0  0  0  0  0  0  0  0
    4.5243   -1.0858    0.3731 C   0  0  0  0  0  0  0  0  0  0  0  0
    4.3846    0.0849    1.3675 C   0  0  0  0  0  0  0  0  0  0  0  0
    4.7692   -0.2248    2.8285 C   0  0  0  0  0  0  0  0  0  0  0  0
    3.8613   -1.2940    3.4513 C   0  0  0  0  0  0  0  0  0  0  0  0
    6.2382   -0.6456    2.9759 C   0  0  0  0  0  0  0  0  0  0  0  0
   -8.2944    1.0461    0.7654 O   0  0  0  0  0  0  0  0  0  0  0  0
  1  2  1  0  0  0  0
  1 10  1  0  0  0  0
  2  3  1  0  0  0  0
  3  4  1  0  0  0  0
  3 28  1  0  0  0  0
  4  5  1  0  0  0  0
  5  6  2  0  0  0  0
  5 10  1  0  0  0  0
  6  7  1  0  0  0  0
  7  8  1  0  0  0  0
  8  9  1  0  0  0  0
  8 14  1  0  0  0  0
  9 10  1  0  0  0  0
  9 11  1  0  0  0  0
 10 19  1  0  0  0  0
 11 12  1  0  0  0  0
 12 13  1  0  0  0  0
 13 14  1  0  0  0  0
 13 17  1  0  0  0  0
 13 18  1  0  0  0  0
 14 15  1  0  0  0  0
 15 16  1  0  0  0  0
 16 17  1  0  0  0  0
 17 20  1  0  0  0  0
 20 21  1  0  0  0  0
 20 22  1  0  0  0  0
 22 23  1  0  0  0  0
 23 24  1  0  0  0  0
 24 25  1  0  0  0  0
 25 26  1  0  0  0  0
 25 27  1  0  0  0  0
M  END
$$$$
CLR_2rh1_C_413
  PyMOL2.2          3D                             0

 28 31  0  0  1  0  0  0  0  0999 V2000
   -5.0824   -0.7700    0.1817 C   0  0  0  0  0  0  0  0  0  0  0  0
   -6.6066   -0.5539    0.2341 C   0  0  0  0  0  0  0  0  0  0  0  0
   -6.9118    0.8501    0.7499 C   0  0  3  0  0  0  0  0  0  0  0  0
   -6.2316    1.9203   -0.1103 C   0  0  0  0  0  0  0  0  0  0  0  0
   -4.7345    1.6879   -0.2525 C   0  0  0  0  0  0  0  0  0  0  0  0
   -3.8789    2.7049   -0.0572 C   0  0  0  0  0  0  0  0  0  0  0  0
   -2.3781    2.5769   -0.1711 C   0  0  0  0  0  0  0  0  0  0  0  0
   -1.9145    1.2934   -0.8829 C   0  0  3  0  0  0  0  0  0  0  0  0
   -2.7475    0.0854   -0.3861 C   0  0  3  0  0  0  0  0  0  0  0  0
   -4.2881    0.2739   -0.6585 C   0  0  3  0  0  0  0  0  0  0  0  0
   -2.1679   -1.2709   -0.8715 C   0  0  0  0  0  0  0  0  0  0  0  0
   -0.6456   -1.4056   -0.6665 C   0  0  0  0  0  0  0  0  0  0  0  0
    0.1425   -0.2380   -1.3046 C   0  0  3  0  0  0  0  0  0  0  0  0
   -0.4146    1.0339   -0.6317 C   0  0  3  0  0  0  0  0  0  0  0  0
    0.5610    2.1335   -1.0408 C   0  0  0  0  0  0  0  0  0  0  0  0
    1.9110    1.4072   -1.0534 C   0  0  0  0  0  0  0  0  0  0  0  0
    1.6391   -0.1101   -0.8933 C   0  0  3  0  0  0  0  0  0  0  0  0
   -0.0054   -0.2578   -2.8498 C   0  0  0  0  0  0  0  0  0  0  0  0
   -4.6248    0.0874   -2.1580 C   0  0  0  0  0  0  0  0  0  0  0  0
    2.7332   -0.9730   -1.5946 C   0  0  3  0  0  0  0  0  0  0  0  0
    2.4453   -2.4825   -1.4853 C   0  0  0  0  0  0  0  0  0  0  0  0
    4.1263   -0.6633   -0.9889 C   0  0  0  0  0  0  0  0  0  0  0  0
    5.3034   -1.3629   -1.6920 C   0  0  0  0  0  0  0  0  0  0  0  0
    6.6874   -0.7408   -1.4103 C   0  0  0  0  0  0  0  0  0  0  0  0
    7.2521   -0.7665    0.0287 C   0  0  0  0  0  0  0  0  0  0  0  0
    6.7000    0.3521    0.9254 C   0  0  0  0  0  0  0  0  0  0  0  0
    7.0734   -2.1259    0.7182 C   0  0  0  0  0  0  0  0  0  0  0  0
   -8.3128    1.0304    0.7395 O   0  0  0  0  0  0  0  0  0  0  0  0
  1  2  1  0  0  0  0
  1 10  1  0  0  0  0
  2  3  1  0  0  0  0
  3  4  1  0  0  0  0
  3 28  1  0  0  0  0
  4  5  1  0  0  0  0
  5  6  2  0  0  0  0
  5 10  1  0  0  0  0
  6  7  1  0  0  0  0
  7  8  1  0  0  0  0
  8  9  1  0  0  0  0
  8 14  1  0  0  0  0
  9 10  1  0  0  0  0
  9 11  1  0  0  0  0
 10 19  1  0  0  0  0
 11 12  1  0  0  0  0
 12 13  1  0  0  0  0
 13 14  1  0  0  0  0
 13 17  1  0  0  0  0
 13 18  1  0  0  0  0
 14 15  1  0  0  0  0
 15 16  1  0  0  0  0
 16 17  1  0  0  0  0
 17 20  1  0  0  0  0
 20 21  1  0  0  0  0
 20 22  1  0  0  0  0
 22 23  1  0  0  0  0
 23 24  1  0  0  0  0
 24 25  1  0  0  0  0
 25 26  1  0  0  0  0
 25 27  1  0  0  0  0
M  END
$$$$
CLR_2rh1_C_413
  PyMOL2.2          3D                             0

 28 31  0  0  1  0  0  0  0  0999 V2000
   -5.0631   -0.7614    0.2007 C   0  0  0  0  0  0  0  0  0  0  0  0
   -6.5860   -0.5442    0.2732 C   0  0  0  0  0  0  0  0  0  0  0  0
   -6.8837    0.8575    0.8001 C   0  0  3  0  0  0  0  0  0  0  0  0
   -6.2119    1.9314   -0.0632 C   0  0  0  0  0  0  0  0  0  0  0  0
   -4.7165    1.6984   -0.2231 C   0  0  0  0  0  0  0  0  0  0  0  0
   -3.8582    2.7129   -0.0307 C   0  0  0  0  0  0  0  0  0  0  0  0
   -2.3582    2.5828   -0.1627 C   0  0  0  0  0  0  0  0  0  0  0  0
   -1.9065    1.3049   -0.8908 C   0  0  3  0  0  0  0  0  0  0  0  0
   -2.7342    0.0934   -0.3904 C   0  0  3  0  0  0  0  0  0  0  0  0
   -4.2770    0.2862   -0.6426 C   0  0  3  0  0  0  0  0  0  0  0  0
   -2.1638   -1.2633   -0.8911 C   0  0  0  0  0  0  0  0  0  0  0  0
   -0.6401   -1.4046   -0.7009 C   0  0  0  0  0  0  0  0  0  0  0  0
    0.1422   -0.2342   -1.3373 C   0  0  3  0  0  0  0  0  0  0  0  0
   -0.4040    1.0415   -0.6613 C   0  0  3  0  0  0  0  0  0  0  0  0
    0.5787    2.1346   -1.0785 C   0  0  0  0  0  0  0  0  0  0  0  0
    1.9327    1.4110   -1.0904 C   0  0  0  0  0  0  0  0  0  0  0  0
    1.6368   -0.0989   -0.9233 C   0  0  3  0  0  0  0  0  0  0  0  0
   -0.0376   -0.2597   -2.8763 C   0  0  0  0  0  0  0  0  0  0  0  0
   -4.6327    0.1084   -2.1389 C   0  0  0  0  0  0  0  0  0  0  0  0
    2.7723   -1.0249   -1.4603 C   0  0  3  0  0  0  0  0  0  0  0  0
    3.1160   -0.9390   -2.9634 C   0  0  0  0  0  0  0  0  0  0  0  0
    2.5110   -2.4961   -1.0711 C   0  0  0  0  0  0  0  0  0  0  0  0
    3.7516   -3.4007   -1.1824 C   0  0  0  0  0  0  0  0  0  0  0  0
    3.5243   -4.8028   -0.5861 C   0  0  0  0  0  0  0  0  0  0  0  0
    2.3667   -5.6193   -1.1970 C   0  0  0  0  0  0  0  0  0  0  0  0
    2.5405   -5.8504   -2.7043 C   0  0  0  0  0  0  0  0  0  0  0  0
    2.2846   -6.9801   -0.4917 C   0  0  0  0  0  0  0  0  0  0  0  0
   -8.2841    1.0401    0.8066 O   0  0  0  0  0  0  0  0  0  0  0  0
  1  2  1  0  0  0  0
  1 10  1  0  0  0  0
  2  3  1  0  0  0  0
  3  4  1  0  0  0  0
  3 28  1  0  0  0  0
  4  5  1  0  0  0  0
  5  6  2  0  0  0  0
  5 10  1  0  0  0  0
  6  7  1  0  0  0  0
  7  8  1  0  0  0  0
  8  9  1  0  0  0  0
  8 14  1  0  0  0  0
  9 10  1  0  0  0  0
  9 11  1  0  0  0  0
 10 19  1  0  0  0  0
 11 12  1  0  0  0  0
 12 13  1  0  0  0  0
 13 14  1  0  0  0  0
 13 17  1  0  0  0  0
 13 18  1  0  0  0  0
 14 15  1  0  0  0  0
 15 16  1  0  0  0  0
 16 17  1  0  0  0  0
 17 20  1  0  0  0  0
 20 21  1  0  0  0  0
 20 22  1  0  0  0  0
 22 23  1  0  0  0  0
 23 24  1  0  0  0  0
 24 25  1  0  0  0  0
 25 26  1  0  0  0  0
 25 27  1  0  0  0  0
M  END
$$$$
CLR_2rh1_C_413
  PyMOL2.2          3D                             0

 28 31  0  0  1  0  0  0  0  0999 V2000
   -5.0687   -0.7537    0.2126 C   0  0  0  0  0  0  0  0  0  0  0  0
   -6.5925   -0.5408    0.2604 C   0  0  0  0  0  0  0  0  0  0  0  0
   -6.9004    0.8670    0.7684 C   0  0  3  0  0  0  0  0  0  0  0  0
   -6.2114    1.9396   -0.0827 C   0  0  0  0  0  0  0  0  0  0  0  0
   -4.7168    1.6995   -0.2340 C   0  0  0  0  0  0  0  0  0  0  0  0
   -3.8575    2.7153   -0.0466 C   0  0  0  0  0  0  0  0  0  0  0  0
   -2.3576    2.5820   -0.1662 C   0  0  0  0  0  0  0  0  0  0  0  0
   -1.9014    1.2960   -0.8777 C   0  0  3  0  0  0  0  0  0  0  0  0
   -2.7342    0.0919   -0.3731 C   0  0  3  0  0  0  0  0  0  0  0  0
   -4.2755    0.2832   -0.6375 C   0  0  3  0  0  0  0  0  0  0  0  0
   -2.1597   -1.2674   -0.8591 C   0  0  0  0  0  0  0  0  0  0  0  0
   -0.6367   -1.4047   -0.6649 C   0  0  0  0  0  0  0  0  0  0  0  0
    0.1501   -0.2386   -1.3096 C   0  0  3  0  0  0  0  0  0  0  0  0
   -0.4002    1.0341   -0.6351 C   0  0  3  0  0  0  0  0  0  0  0  0
    0.5744    2.1313   -1.0499 C   0  0  0  0  0  0  0  0  0  0  0  0
    1.9223    1.4019   -1.0813 C   0  0  0  0  0  0  0  0  0  0  0  0
    1.6488   -0.1130   -0.9091 C   0  0  3  0  0  0  0  0  0  0  0  0
   -0.0085   -0.2617   -2.8542 C   0  0  0  0  0  0  0  0  0  0  0  0
   -4.6210    0.0925   -2.1347 C   0  0  0  0  0  0  0  0  0  0  0  0
    2.7360   -0.9827   -1.6136 C   0  0  3  0  0  0  0  0  0  0  0  0
    2.4436   -2.4897   -1.4889 C   0  0  0  0  0  0  0  0  0  0  0  0
    4.1369   -0.6732   -1.0214 C   0  0  0  0  0  0  0  0  0  0  0  0
    5.3464   -1.4181   -1.6240 C   0  0  0  0  0  0  0  0  0  0  0  0
    5.4981   -1.4432   -3.1602 C   0  0  0  0  0  0  0  0  0  0  0  0
    5.9854   -0.1378   -3.8275 C   0  0  0  0  0  0  0  0  0  0  0  0
    6.5367   -0.4696   -5.2226 C   0  0  0  0  0  0  0  0  0  0  0  0
    4.8820    0.9143   -4.0044 C   0  0  0  0  0  0  0  0  0  0  0  0
   -8.2982    1.0534    0.7548 O   0  0  0  0  0  0  0  0  0  0  0  0
  1  2  1  0  0  0  0
  1 10  1  0  0  0  0
  2  3  1  0  0  0  0
  3  4  1  0  0  0  0
  3 28  1  0  0  0  0
  4  5  1  0  0  0  0
  5  6  2  0  0  0  0
  5 10  1  0  0  0  0
  6  7  1  0  0  0  0
  7  8  1  0  0  0  0
  8  9  1  0  0  0  0
  8 14  1  0  0  0  0
  9 10  1  0  0  0  0
  9 11  1  0  0  0  0
 10 19  1  0  0  0  0
 11 12  1  0  0  0  0
 12 13  1  0  0  0  0
 13 14  1  0  0  0  0
 13 17  1  0  0  0  0
 13 18  1  0  0  0  0
 14 15  1  0  0  0  0
 15 16  1  0  0  0  0
 16 17  1  0  0  0  0
 17 20  1  0  0  0  0
 20 21  1  0  0  0  0
 20 22  1  0  0  0  0
 22 23  1  0  0  0  0
 23 24  1  0  0  0  0
 24 25  1  0  0  0  0
 25 26  1  0  0  0  0
 25 27  1  0  0  0  0
M  END
$$$$
CLR_2rh1_C_413
  PyMOL2.2          3D                             0

 28 31  0  0  1  0  0  0  0  0999 V2000
   -5.0697   -0.7561    0.2072 C   0  0  0  0  0  0  0  0  0  0  0  0
   -6.5922   -0.5373    0.2668 C   0  0  0  0  0  0  0  0  0  0  0  0
   -6.8922    0.8697    0.7796 C   0  0  3  0  0  0  0  0  0  0  0  0
   -6.2133    1.9355   -0.0868 C   0  0  0  0  0  0  0  0  0  0  0  0
   -4.7176    1.6992   -0.2356 C   0  0  0  0  0  0  0  0  0  0  0  0
   -3.8580    2.7152   -0.0467 C   0  0  0  0  0  0  0  0  0  0  0  0
   -2.3583    2.5821   -0.1679 C   0  0  0  0  0  0  0  0  0  0  0  0
   -1.9022    1.2957   -0.8796 C   0  0  3  0  0  0  0  0  0  0  0  0
   -2.7354    0.0914   -0.3749 C   0  0  3  0  0  0  0  0  0  0  0  0
   -4.2758    0.2829   -0.6403 C   0  0  3  0  0  0  0  0  0  0  0  0
   -2.1613   -1.2675   -0.8616 C   0  0  0  0  0  0  0  0  0  0  0  0
   -0.6376   -1.4048   -0.6661 C   0  0  0  0  0  0  0  0  0  0  0  0
    0.1509   -0.2397   -1.3098 C   0  0  3  0  0  0  0  0  0  0  0  0
   -0.4008    1.0330   -0.6351 C   0  0  3  0  0  0  0  0  0  0  0  0
    0.5736    2.1323   -1.0479 C   0  0  0  0  0  0  0  0  0  0  0  0
    1.9211    1.4026   -1.0793 C   0  0  0  0  0  0  0  0  0  0  0  0
    1.6487   -0.1130   -0.9084 C   0  0  3  0  0  0  0  0  0  0  0  0
   -0.0064   -0.2617   -2.8544 C   0  0  0  0  0  0  0  0  0  0  0  0
   -4.6220    0.0943   -2.1377 C   0  0  0  0  0  0  0  0  0  0  0  0
    2.7378   -0.9822   -1.6094 C   0  0  3  0  0  0  0  0  0  0  0  0
    2.4460   -2.4893   -1.4839 C   0  0  0  0  0  0  0  0  0  0  0  0
    4.1380   -0.6666   -1.0154 C   0  0  0  0  0  0  0  0  0  0  0  0
    5.3483   -1.4229   -1.5984 C   0  0  0  0  0  0  0  0  0  0  0  0
    5.5348   -1.4063   -3.1325 C   0  0  0  0  0  0  0  0  0  0  0  0
    5.9523   -0.0941   -3.8346 C   0  0  0  0  0  0  0  0  0  0  0  0
    4.8005    0.9009   -4.0309 C   0  0  0  0  0  0  0  0  0  0  0  0
    7.1243    0.6093   -3.1374 C   0  0  0  0  0  0  0  0  0  0  0  0
   -8.2922    1.0536    0.7764 O   0  0  0  0  0  0  0  0  0  0  0  0
  1  2  1  0  0  0  0
  1 10  1  0  0  0  0
  2  3  1  0  0  0  0
  3  4  1  0  0  0  0
  3 28  1  0  0  0  0
  4  5  1  0  0  0  0
  5  6  2  0  0  0  0
  5 10  1  0  0  0  0
  6  7  1  0  0  0  0
  7  8  1  0  0  0  0
  8  9  1  0  0  0  0
  8 14  1  0  0  0  0
  9 10  1  0  0  0  0
  9 11  1  0  0  0  0
 10 19  1  0  0  0  0
 11 12  1  0  0  0  0
 12 13  1  0  0  0  0
 13 14  1  0  0  0  0
 13 17  1  0  0  0  0
 13 18  1  0  0  0  0
 14 15  1  0  0  0  0
 15 16  1  0  0  0  0
 16 17  1  0  0  0  0
 17 20  1  0  0  0  0
 20 21  1  0  0  0  0
 20 22  1  0  0  0  0
 22 23  1  0  0  0  0
 23 24  1  0  0  0  0
 24 25  1  0  0  0  0
 25 26  1  0  0  0  0
 25 27  1  0  0  0  0
M  END
$$$$
CLR_2rh1_C_413
  PyMOL2.2          3D                             0

 28 31  0  0  1  0  0  0  0  0999 V2000
   -5.0667   -0.7577    0.2059 C   0  0  0  0  0  0  0  0  0  0  0  0
   -6.5898   -0.5401    0.2664 C   0  0  0  0  0  0  0  0  0  0  0  0
   -6.8906    0.8657    0.7819 C   0  0  3  0  0  0  0  0  0  0  0  0
   -6.2132    1.9332   -0.0851 C   0  0  0  0  0  0  0  0  0  0  0  0
   -4.7170    1.6991   -0.2345 C   0  0  0  0  0  0  0  0  0  0  0  0
   -3.8594    2.7154   -0.0465 C   0  0  0  0  0  0  0  0  0  0  0  0
   -2.3590    2.5837   -0.1683 C   0  0  0  0  0  0  0  0  0  0  0  0
   -1.9014    1.2990   -0.8810 C   0  0  3  0  0  0  0  0  0  0  0  0
   -2.7334    0.0928   -0.3770 C   0  0  3  0  0  0  0  0  0  0  0  0
   -4.2747    0.2834   -0.6407 C   0  0  3  0  0  0  0  0  0  0  0  0
   -2.1597   -1.2666   -0.8646 C   0  0  0  0  0  0  0  0  0  0  0  0
   -0.6365   -1.4037   -0.6676 C   0  0  0  0  0  0  0  0  0  0  0  0
    0.1485   -0.2373   -1.3071 C   0  0  3  0  0  0  0  0  0  0  0  0
   -0.4004    1.0383   -0.6379 C   0  0  3  0  0  0  0  0  0  0  0  0
    0.5779    2.1311   -1.0626 C   0  0  0  0  0  0  0  0  0  0  0  0
    1.9264    1.4000   -1.0711 C   0  0  0  0  0  0  0  0  0  0  0  0
    1.6447   -0.1144   -0.8982 C   0  0  3  0  0  0  0  0  0  0  0  0
   -0.0075   -0.2602   -2.8522 C   0  0  0  0  0  0  0  0  0  0  0  0
   -4.6217    0.0956   -2.1384 C   0  0  0  0  0  0  0  0  0  0  0  0
    2.7229   -0.9856   -1.6093 C   0  0  3  0  0  0  0  0  0  0  0  0
    2.4297   -2.4939   -1.5088 C   0  0  0  0  0  0  0  0  0  0  0  0
    4.1419   -0.7311   -1.0299 C   0  0  0  0  0  0  0  0  0  0  0  0
    5.2145   -0.4513   -2.0979 C   0  0  0  0  0  0  0  0  0  0  0  0
    5.4987   -1.6591   -3.0120 C   0  0  0  0  0  0  0  0  0  0  0  0
    6.6155   -1.4607   -4.0581 C   0  0  0  0  0  0  0  0  0  0  0  0
    6.2943   -0.3277   -5.0440 C   0  0  0  0  0  0  0  0  0  0  0  0
    7.9857   -1.2098   -3.4143 C   0  0  0  0  0  0  0  0  0  0  0  0
   -8.2902    1.0481    0.7789 O   0  0  0  0  0  0  0  0  0  0  0  0
  1  2  1  0  0  0  0
  1 10  1  0  0  0  0
  2  3  1  0  0  0  0
  3  4  1  0  0  0  0
  3 28  1  0  0  0  0
  4  5  1  0  0  0  0
  5  6  2  0  0  0  0
  5 10  1  0  0  0  0
  6  7  1  0  0  0  0
  7  8  1  0  0  0  0
  8  9  1  0  0  0  0
  8 14  1  0  0  0  0
  9 10  1  0  0  0  0
  9 11  1  0  0  0  0
 10 19  1  0  0  0  0
 11 12  1  0  0  0  0
 12 13  1  0  0  0  0
 13 14  1  0  0  0  0
 13 17  1  0  0  0  0
 13 18  1  0  0  0  0
 14 15  1  0  0  0  0
 15 16  1  0  0  0  0
 16 17  1  0  0  0  0
 17 20  1  0  0  0  0
 20 21  1  0  0  0  0
 20 22  1  0  0  0  0
 22 23  1  0  0  0  0
 23 24  1  0  0  0  0
 24 25  1  0  0  0  0
 25 26  1  0  0  0  0
 25 27  1  0  0  0  0
M  END
$$$$
CLR_2rh1_C_413
  PyMOL2.2          3D                             0

 28 31  0  0  1  0  0  0  0  0999 V2000
   -5.0672   -0.7577    0.2065 C   0  0  0  0  0  0  0  0  0  0  0  0
   -6.5900   -0.5394    0.2672 C   0  0  0  0  0  0  0  0  0  0  0  0
   -6.8911    0.8674    0.7811 C   0  0  3  0  0  0  0  0  0  0  0  0
   -6.2129    1.9339   -0.0853 C   0  0  0  0  0  0  0  0  0  0  0  0
   -4.7177    1.6985   -0.2353 C   0  0  0  0  0  0  0  0  0  0  0  0
   -3.8592    2.7147   -0.0461 C   0  0  0  0  0  0  0  0  0  0  0  0
   -2.3590    2.5842   -0.1682 C   0  0  0  0  0  0  0  0  0  0  0  0
   -1.9018    1.2984   -0.8814 C   0  0  3  0  0  0  0  0  0  0  0  0
   -2.7340    0.0929   -0.3769 C   0  0  3  0  0  0  0  0  0  0  0  0
   -4.2756    0.2833   -0.6402 C   0  0  3  0  0  0  0  0  0  0  0  0
   -2.1594   -1.2668   -0.8643 C   0  0  0  0  0  0  0  0  0  0  0  0
   -0.6374   -1.4042   -0.6670 C   0  0  0  0  0  0  0  0  0  0  0  0
    0.1495   -0.2376   -1.3077 C   0  0  3  0  0  0  0  0  0  0  0  0
   -0.4007    1.0374   -0.6378 C   0  0  3  0  0  0  0  0  0  0  0  0
    0.5773    2.1306   -1.0623 C   0  0  0  0  0  0  0  0  0  0  0  0
    1.9261    1.4005   -1.0688 C   0  0  0  0  0  0  0  0  0  0  0  0
    1.6455   -0.1158   -0.8988 C   0  0  3  0  0  0  0  0  0  0  0  0
   -0.0077   -0.2594   -2.8533 C   0  0  0  0  0  0  0  0  0  0  0  0
   -4.6223    0.0944   -2.1382 C   0  0  0  0  0  0  0  0  0  0  0  0
    2.7267   -0.9839   -1.6112 C   0  0  3  0  0  0  0  0  0  0  0  0
    2.4303   -2.4911   -1.5198 C   0  0  0  0  0  0  0  0  0  0  0  0
    4.1431   -0.7291   -1.0252 C   0  0  0  0  0  0  0  0  0  0  0  0
    5.2197   -0.4521   -2.0928 C   0  0  0  0  0  0  0  0  0  0  0  0
    5.5762   -1.6386   -3.0103 C   0  0  0  0  0  0  0  0  0  0  0  0
    6.2268   -2.8525   -2.3136 C   0  0  0  0  0  0  0  0  0  0  0  0
    6.4233   -3.9730   -3.3428 C   0  0  0  0  0  0  0  0  0  0  0  0
    7.5853   -2.5110   -1.6865 C   0  0  0  0  0  0  0  0  0  0  0  0
   -8.2906    1.0499    0.7789 O   0  0  0  0  0  0  0  0  0  0  0  0
  1  2  1  0  0  0  0
  1 10  1  0  0  0  0
  2  3  1  0  0  0  0
  3  4  1  0  0  0  0
  3 28  1  0  0  0  0
  4  5  1  0  0  0  0
  5  6  2  0  0  0  0
  5 10  1  0  0  0  0
  6  7  1  0  0  0  0
  7  8  1  0  0  0  0
  8  9  1  0  0  0  0
  8 14  1  0  0  0  0
  9 10  1  0  0  0  0
  9 11  1  0  0  0  0
 10 19  1  0  0  0  0
 11 12  1  0  0  0  0
 12 13  1  0  0  0  0
 13 14  1  0  0  0  0
 13 17  1  0  0  0  0
 13 18  1  0  0  0  0
 14 15  1  0  0  0  0
 15 16  1  0  0  0  0
 16 17  1  0  0  0  0
 17 20  1  0  0  0  0
 20 21  1  0  0  0  0
 20 22  1  0  0  0  0
 22 23  1  0  0  0  0
 23 24  1  0  0  0  0
 24 25  1  0  0  0  0
 25 26  1  0  0  0  0
 25 27  1  0  0  0  0
M  END
$$$$
CLR_2rh1_C_413
  PyMOL2.2          3D                             0

 28 31  0  0  1  0  0  0  0  0999 V2000
   -5.0835   -0.7672    0.1858 C   0  0  0  0  0  0  0  0  0  0  0  0
   -6.6079   -0.5544    0.2333 C   0  0  0  0  0  0  0  0  0  0  0  0
   -6.9174    0.8535    0.7419 C   0  0  3  0  0  0  0  0  0  0  0  0
   -6.2322    1.9218   -0.1155 C   0  0  0  0  0  0  0  0  0  0  0  0
   -4.7337    1.6879   -0.2540 C   0  0  0  0  0  0  0  0  0  0  0  0
   -3.8787    2.7041   -0.0572 C   0  0  0  0  0  0  0  0  0  0  0  0
   -2.3781    2.5757   -0.1687 C   0  0  0  0  0  0  0  0  0  0  0  0
   -1.9143    1.2929   -0.8810 C   0  0  3  0  0  0  0  0  0  0  0  0
   -2.7470    0.0851   -0.3854 C   0  0  3  0  0  0  0  0  0  0  0  0
   -4.2878    0.2733   -0.6570 C   0  0  3  0  0  0  0  0  0  0  0  0
   -2.1676   -1.2714   -0.8720 C   0  0  0  0  0  0  0  0  0  0  0  0
   -0.6455   -1.4058   -0.6675 C   0  0  0  0  0  0  0  0  0  0  0  0
    0.1435   -0.2375   -1.3036 C   0  0  3  0  0  0  0  0  0  0  0  0
   -0.4136    1.0334   -0.6319 C   0  0  3  0  0  0  0  0  0  0  0  0
    0.5609    2.1338   -1.0421 C   0  0  0  0  0  0  0  0  0  0  0  0
    1.9110    1.4074   -1.0517 C   0  0  0  0  0  0  0  0  0  0  0  0
    1.6392   -0.1110   -0.8932 C   0  0  3  0  0  0  0  0  0  0  0  0
   -0.0056   -0.2550   -2.8498 C   0  0  0  0  0  0  0  0  0  0  0  0
   -4.6254    0.0850   -2.1576 C   0  0  0  0  0  0  0  0  0  0  0  0
    2.7326   -0.9726   -1.5979 C   0  0  3  0  0  0  0  0  0  0  0  0
    2.4412   -2.4824   -1.4983 C   0  0  0  0  0  0  0  0  0  0  0  0
    4.1286   -0.6731   -0.9911 C   0  0  0  0  0  0  0  0  0  0  0  0
    5.3061   -1.3223   -1.7443 C   0  0  0  0  0  0  0  0  0  0  0  0
    6.6773   -0.7674   -1.3043 C   0  0  0  0  0  0  0  0  0  0  0  0
    7.2825    0.3814   -2.1417 C   0  0  0  0  0  0  0  0  0  0  0  0
    7.6599   -0.0766   -3.5576 C   0  0  0  0  0  0  0  0  0  0  0  0
    6.3783    1.6177   -2.2331 C   0  0  0  0  0  0  0  0  0  0  0  0
   -8.3158    1.0426    0.7187 O   0  0  0  0  0  0  0  0  0  0  0  0
  1  2  1  0  0  0  0
  1 10  1  0  0  0  0
  2  3  1  0  0  0  0
  3  4  1  0  0  0  0
  3 28  1  0  0  0  0
  4  5  1  0  0  0  0
  5  6  2  0  0  0  0
  5 10  1  0  0  0  0
  6  7  1  0  0  0  0
  7  8  1  0  0  0  0
  8  9  1  0  0  0  0
  8 14  1  0  0  0  0
  9 10  1  0  0  0  0
  9 11  1  0  0  0  0
 10 19  1  0  0  0  0
 11 12  1  0  0  0  0
 12 13  1  0  0  0  0
 13 14  1  0  0  0  0
 13 17  1  0  0  0  0
 13 18  1  0  0  0  0
 14 15  1  0  0  0  0
 15 16  1  0  0  0  0
 16 17  1  0  0  0  0
 17 20  1  0  0  0  0
 20 21  1  0  0  0  0
 20 22  1  0  0  0  0
 22 23  1  0  0  0  0
 23 24  1  0  0  0  0
 24 25  1  0  0  0  0
 25 26  1  0  0  0  0
 25 27  1  0  0  0  0
M  END
$$$$
CLR_2rh1_C_413
  PyMOL2.2          3D                             0

 28 31  0  0  1  0  0  0  0  0999 V2000
   -5.0836   -0.7665    0.1853 C   0  0  0  0  0  0  0  0  0  0  0  0
   -6.6083   -0.5534    0.2334 C   0  0  0  0  0  0  0  0  0  0  0  0
   -6.9177    0.8537    0.7427 C   0  0  3  0  0  0  0  0  0  0  0  0
   -6.2324    1.9219   -0.1150 C   0  0  0  0  0  0  0  0  0  0  0  0
   -4.7339    1.6875   -0.2537 C   0  0  0  0  0  0  0  0  0  0  0  0
   -3.8790    2.7046   -0.0574 C   0  0  0  0  0  0  0  0  0  0  0  0
   -2.3775    2.5756   -0.1689 C   0  0  0  0  0  0  0  0  0  0  0  0
   -1.9145    1.2925   -0.8809 C   0  0  3  0  0  0  0  0  0  0  0  0
   -2.7478    0.0854   -0.3851 C   0  0  3  0  0  0  0  0  0  0  0  0
   -4.2875    0.2735   -0.6574 C   0  0  3  0  0  0  0  0  0  0  0  0
   -2.1680   -1.2713   -0.8717 C   0  0  0  0  0  0  0  0  0  0  0  0
   -0.6458   -1.4066   -0.6677 C   0  0  0  0  0  0  0  0  0  0  0  0
    0.1437   -0.2382   -1.3054 C   0  0  3  0  0  0  0  0  0  0  0  0
   -0.4140    1.0321   -0.6310 C   0  0  3  0  0  0  0  0  0  0  0  0
    0.5603    2.1331   -1.0393 C   0  0  0  0  0  0  0  0  0  0  0  0
    1.9106    1.4075   -1.0540 C   0  0  0  0  0  0  0  0  0  0  0  0
    1.6396   -0.1101   -0.8948 C   0  0  3  0  0  0  0  0  0  0  0  0
   -0.0060   -0.2557   -2.8508 C   0  0  0  0  0  0  0  0  0  0  0  0
   -4.6257    0.0848   -2.1569 C   0  0  0  0  0  0  0  0  0  0  0  0
    2.7361   -0.9712   -1.5956 C   0  0  3  0  0  0  0  0  0  0  0  0
    2.4464   -2.4801   -1.4980 C   0  0  0  0  0  0  0  0  0  0  0  0
    4.1295   -0.6532   -0.9888 C   0  0  0  0  0  0  0  0  0  0  0  0
    5.3272   -1.3750   -1.6405 C   0  0  0  0  0  0  0  0  0  0  0  0
    5.8468   -2.5453   -0.7800 C   0  0  0  0  0  0  0  0  0  0  0  0
    6.9733   -3.3910   -1.4077 C   0  0  0  0  0  0  0  0  0  0  0  0
    6.5065   -4.1394   -2.6634 C   0  0  0  0  0  0  0  0  0  0  0  0
    8.2184   -2.5554   -1.7387 C   0  0  0  0  0  0  0  0  0  0  0  0
   -8.3161    1.0437    0.7182 O   0  0  0  0  0  0  0  0  0  0  0  0
  1  2  1  0  0  0  0
  1 10  1  0  0  0  0
  2  3  1  0  0  0  0
  3  4  1  0  0  0  0
  3 28  1  0  0  0  0
  4  5  1  0  0  0  0
  5  6  2  0  0  0  0
  5 10  1  0  0  0  0
  6  7  1  0  0  0  0
  7  8  1  0  0  0  0
  8  9  1  0  0  0  0
  8 14  1  0  0  0  0
  9 10  1  0  0  0  0
  9 11  1  0  0  0  0
 10 19  1  0  0  0  0
 11 12  1  0  0  0  0
 12 13  1  0  0  0  0
 13 14  1  0  0  0  0
 13 17  1  0  0  0  0
 13 18  1  0  0  0  0
 14 15  1  0  0  0  0
 15 16  1  0  0  0  0
 16 17  1  0  0  0  0
 17 20  1  0  0  0  0
 20 21  1  0  0  0  0
 20 22  1  0  0  0  0
 22 23  1  0  0  0  0
 23 24  1  0  0  0  0
 24 25  1  0  0  0  0
 25 26  1  0  0  0  0
 25 27  1  0  0  0  0
M  END
$$$$
CLR_2rh1_C_413
  PyMOL2.2          3D                             0

 28 31  0  0  1  0  0  0  0  0999 V2000
   -5.0627   -0.7617    0.2012 C   0  0  0  0  0  0  0  0  0  0  0  0
   -6.5856   -0.5455    0.2733 C   0  0  0  0  0  0  0  0  0  0  0  0
   -6.8835    0.8567    0.8002 C   0  0  3  0  0  0  0  0  0  0  0  0
   -6.2126    1.9305   -0.0622 C   0  0  0  0  0  0  0  0  0  0  0  0
   -4.7173    1.6978   -0.2224 C   0  0  0  0  0  0  0  0  0  0  0  0
   -3.8586    2.7134   -0.0308 C   0  0  0  0  0  0  0  0  0  0  0  0
   -2.3588    2.5837   -0.1626 C   0  0  0  0  0  0  0  0  0  0  0  0
   -1.9061    1.3059   -0.8908 C   0  0  3  0  0  0  0  0  0  0  0  0
   -2.7334    0.0940   -0.3917 C   0  0  3  0  0  0  0  0  0  0  0  0
   -4.2764    0.2854   -0.6426 C   0  0  3  0  0  0  0  0  0  0  0  0
   -2.1627   -1.2624   -0.8922 C   0  0  0  0  0  0  0  0  0  0  0  0
   -0.6396   -1.4041   -0.7025 C   0  0  0  0  0  0  0  0  0  0  0  0
    0.1423   -0.2334   -1.3375 C   0  0  3  0  0  0  0  0  0  0  0  0
   -0.4031    1.0424   -0.6616 C   0  0  3  0  0  0  0  0  0  0  0  0
    0.5797    2.1357   -1.0788 C   0  0  0  0  0  0  0  0  0  0  0  0
    1.9338    1.4108   -1.0936 C   0  0  0  0  0  0  0  0  0  0  0  0
    1.6360   -0.0980   -0.9219 C   0  0  3  0  0  0  0  0  0  0  0  0
   -0.0369   -0.2578   -2.8767 C   0  0  0  0  0  0  0  0  0  0  0  0
   -4.6337    0.1090   -2.1391 C   0  0  0  0  0  0  0  0  0  0  0  0
    2.7685   -1.0307   -1.4557 C   0  0  3  0  0  0  0  0  0  0  0  0
    3.1123   -0.9476   -2.9591 C   0  0  0  0  0  0  0  0  0  0  0  0
    2.5019   -2.4993   -1.0580 C   0  0  0  0  0  0  0  0  0  0  0  0
    3.7552   -3.3928   -1.0941 C   0  0  0  0  0  0  0  0  0  0  0  0
    3.4629   -4.8600   -0.7292 C   0  0  0  0  0  0  0  0  0  0  0  0
    2.8592   -5.1134    0.6683 C   0  0  0  0  0  0  0  0  0  0  0  0
    2.6566   -6.6218    0.8611 C   0  0  0  0  0  0  0  0  0  0  0  0
    3.7514   -4.5825    1.7993 C   0  0  0  0  0  0  0  0  0  0  0  0
   -8.2834    1.0386    0.8079 O   0  0  0  0  0  0  0  0  0  0  0  0
  1  2  1  0  0  0  0
  1 10  1  0  0  0  0
  2  3  1  0  0  0  0
  3  4  1  0  0  0  0
  3 28  1  0  0  0  0
  4  5  1  0  0  0  0
  5  6  2  0  0  0  0
  5 10  1  0  0  0  0
  6  7  1  0  0  0  0
  7  8  1  0  0  0  0
  8  9  1  0  0  0  0
  8 14  1  0  0  0  0
  9 10  1  0  0  0  0
  9 11  1  0  0  0  0
 10 19  1  0  0  0  0
 11 12  1  0  0  0  0
 12 13  1  0  0  0  0
 13 14  1  0  0  0  0
 13 17  1  0  0  0  0
 13 18  1  0  0  0  0
 14 15  1  0  0  0  0
 15 16  1  0  0  0  0
 16 17  1  0  0  0  0
 17 20  1  0  0  0  0
 20 21  1  0  0  0  0
 20 22  1  0  0  0  0
 22 23  1  0  0  0  0
 23 24  1  0  0  0  0
 24 25  1  0  0  0  0
 25 26  1  0  0  0  0
 25 27  1  0  0  0  0
M  END
$$$$
CLR_2rh1_C_413
  PyMOL2.2          3D                             0

 28 31  0  0  1  0  0  0  0  0999 V2000
   -5.0633   -0.7616    0.2010 C   0  0  0  0  0  0  0  0  0  0  0  0
   -6.5859   -0.5450    0.2723 C   0  0  0  0  0  0  0  0  0  0  0  0
   -6.8840    0.8572    0.7996 C   0  0  3  0  0  0  0  0  0  0  0  0
   -6.2117    1.9314   -0.0627 C   0  0  0  0  0  0  0  0  0  0  0  0
   -4.7169    1.6984   -0.2224 C   0  0  0  0  0  0  0  0  0  0  0  0
   -3.8577    2.7134   -0.0301 C   0  0  0  0  0  0  0  0  0  0  0  0
   -2.3580    2.5831   -0.1609 C   0  0  0  0  0  0  0  0  0  0  0  0
   -1.9062    1.3054   -0.8905 C   0  0  3  0  0  0  0  0  0  0  0  0
   -2.7339    0.0936   -0.3910 C   0  0  3  0  0  0  0  0  0  0  0  0
   -4.2771    0.2855   -0.6426 C   0  0  3  0  0  0  0  0  0  0  0  0
   -2.1630   -1.2633   -0.8912 C   0  0  0  0  0  0  0  0  0  0  0  0
   -0.6386   -1.4050   -0.7022 C   0  0  0  0  0  0  0  0  0  0  0  0
    0.1420   -0.2341   -1.3375 C   0  0  3  0  0  0  0  0  0  0  0  0
   -0.4032    1.0417   -0.6614 C   0  0  3  0  0  0  0  0  0  0  0  0
    0.5794    2.1356   -1.0808 C   0  0  0  0  0  0  0  0  0  0  0  0
    1.9329    1.4104   -1.0938 C   0  0  0  0  0  0  0  0  0  0  0  0
    1.6353   -0.0988   -0.9221 C   0  0  3  0  0  0  0  0  0  0  0  0
   -0.0386   -0.2586   -2.8762 C   0  0  0  0  0  0  0  0  0  0  0  0
   -4.6334    0.1088   -2.1392 C   0  0  0  0  0  0  0  0  0  0  0  0
    2.7713   -1.0264   -1.4561 C   0  0  3  0  0  0  0  0  0  0  0  0
    3.1032   -0.9531   -2.9625 C   0  0  0  0  0  0  0  0  0  0  0  0
    2.5256   -2.4948   -1.0445 C   0  0  0  0  0  0  0  0  0  0  0  0
    3.7807   -3.3799   -1.1335 C   0  0  0  0  0  0  0  0  0  0  0  0
    3.4755   -4.7929   -0.6016 C   0  0  0  0  0  0  0  0  0  0  0  0
    4.6499   -5.7920   -0.6411 C   0  0  0  0  0  0  0  0  0  0  0  0
    5.1378   -6.0645   -2.0711 C   0  0  0  0  0  0  0  0  0  0  0  0
    5.8320   -5.3379    0.2271 C   0  0  0  0  0  0  0  0  0  0  0  0
   -8.2838    1.0400    0.8062 O   0  0  0  0  0  0  0  0  0  0  0  0
  1  2  1  0  0  0  0
  1 10  1  0  0  0  0
  2  3  1  0  0  0  0
  3  4  1  0  0  0  0
  3 28  1  0  0  0  0
  4  5  1  0  0  0  0
  5  6  2  0  0  0  0
  5 10  1  0  0  0  0
  6  7  1  0  0  0  0
  7  8  1  0  0  0  0
  8  9  1  0  0  0  0
  8 14  1  0  0  0  0
  9 10  1  0  0  0  0
  9 11  1  0  0  0  0
 10 19  1  0  0  0  0
 11 12  1  0  0  0  0
 12 13  1  0  0  0  0
 13 14  1  0  0  0  0
 13 17  1  0  0  0  0
 13 18  1  0  0  0  0
 14 15  1  0  0  0  0
 15 16  1  0  0  0  0
 16 17  1  0  0  0  0
 17 20  1  0  0  0  0
 20 21  1  0  0  0  0
 20 22  1  0  0  0  0
 22 23  1  0  0  0  0
 23 24  1  0  0  0  0
 24 25  1  0  0  0  0
 25 26  1  0  0  0  0
 25 27  1  0  0  0  0
M  END
$$$$
CLR_2rh1_C_413
  PyMOL2.2          3D                             0

 28 31  0  0  1  0  0  0  0  0999 V2000
   -5.0656   -0.7626    0.1959 C   0  0  0  0  0  0  0  0  0  0  0  0
   -6.5886   -0.5436    0.2666 C   0  0  0  0  0  0  0  0  0  0  0  0
   -6.8858    0.8572    0.7961 C   0  0  3  0  0  0  0  0  0  0  0  0
   -6.2114    1.9329   -0.0628 C   0  0  0  0  0  0  0  0  0  0  0  0
   -4.7166    1.6984   -0.2208 C   0  0  0  0  0  0  0  0  0  0  0  0
   -3.8570    2.7108   -0.0226 C   0  0  0  0  0  0  0  0  0  0  0  0
   -2.3572    2.5799   -0.1512 C   0  0  0  0  0  0  0  0  0  0  0  0
   -1.9066    1.3057   -0.8862 C   0  0  3  0  0  0  0  0  0  0  0  0
   -2.7342    0.0926   -0.3911 C   0  0  3  0  0  0  0  0  0  0  0  0
   -4.2775    0.2867   -0.6445 C   0  0  3  0  0  0  0  0  0  0  0  0
   -2.1640   -1.2646   -0.8919 C   0  0  0  0  0  0  0  0  0  0  0  0
   -0.6407   -1.4018   -0.6919 C   0  0  0  0  0  0  0  0  0  0  0  0
    0.1429   -0.2369   -1.3327 C   0  0  3  0  0  0  0  0  0  0  0  0
   -0.4018    1.0427   -0.6610 C   0  0  3  0  0  0  0  0  0  0  0  0
    0.5784    2.1338   -1.0887 C   0  0  0  0  0  0  0  0  0  0  0  0
    1.9313    1.4074   -1.1141 C   0  0  0  0  0  0  0  0  0  0  0  0
    1.6387   -0.0999   -0.9194 C   0  0  3  0  0  0  0  0  0  0  0  0
   -0.0473   -0.2640   -2.8706 C   0  0  0  0  0  0  0  0  0  0  0  0
   -4.6315    0.1136   -2.1414 C   0  0  0  0  0  0  0  0  0  0  0  0
    2.7840   -1.0166   -1.4556 C   0  0  3  0  0  0  0  0  0  0  0  0
    3.0749   -0.9820   -2.9703 C   0  0  0  0  0  0  0  0  0  0  0  0
    2.6563   -2.5083   -1.0641 C   0  0  0  0  0  0  0  0  0  0  0  0
    2.5263   -2.8388    0.4354 C   0  0  0  0  0  0  0  0  0  0  0  0
    3.7177   -2.3477    1.2782 C   0  0  0  0  0  0  0  0  0  0  0  0
    3.5798   -2.6698    2.7784 C   0  0  0  0  0  0  0  0  0  0  0  0
    3.6083   -4.1778    3.0676 C   0  0  0  0  0  0  0  0  0  0  0  0
    4.7287   -2.0006    3.5441 C   0  0  0  0  0  0  0  0  0  0  0  0
   -8.2857    1.0409    0.8009 O   0  0  0  0  0  0  0  0  0  0  0  0
  1  2  1  0  0  0  0
  1 10  1  0  0  0  0
  2  3  1  0  0  0  0
  3  4  1  0  0  0  0
  3 28  1  0  0  0  0
  4  5  1  0  0  0  0
  5  6  2  0  0  0  0
  5 10  1  0  0  0  0
  6  7  1  0  0  0  0
  7  8  1  0  0  0  0
  8  9  1  0  0  0  0
  8 14  1  0  0  0  0
  9 10  1  0  0  0  0
  9 11  1  0  0  0  0
 10 19  1  0  0  0  0
 11 12  1  0  0  0  0
 12 13  1  0  0  0  0
 13 14  1  0  0  0  0
 13 17  1  0  0  0  0
 13 18  1  0  0  0  0
 14 15  1  0  0  0  0
 15 16  1  0  0  0  0
 16 17  1  0  0  0  0
 17 20  1  0  0  0  0
 20 21  1  0  0  0  0
 20 22  1  0  0  0  0
 22 23  1  0  0  0  0
 23 24  1  0  0  0  0
 24 25  1  0  0  0  0
 25 26  1  0  0  0  0
 25 27  1  0  0  0  0
M  END
$$$$
CLR_2rh1_C_413
  PyMOL2.2          3D                             0

 28 31  0  0  1  0  0  0  0  0999 V2000
   -5.0819   -0.7675    0.1855 C   0  0  0  0  0  0  0  0  0  0  0  0
   -6.6068   -0.5553    0.2344 C   0  0  0  0  0  0  0  0  0  0  0  0
   -6.9166    0.8515    0.7446 C   0  0  3  0  0  0  0  0  0  0  0  0
   -6.2324    1.9209   -0.1124 C   0  0  0  0  0  0  0  0  0  0  0  0
   -4.7351    1.6873   -0.2531 C   0  0  0  0  0  0  0  0  0  0  0  0
   -3.8798    2.7040   -0.0570 C   0  0  0  0  0  0  0  0  0  0  0  0
   -2.3780    2.5763   -0.1687 C   0  0  0  0  0  0  0  0  0  0  0  0
   -1.9149    1.2939   -0.8826 C   0  0  3  0  0  0  0  0  0  0  0  0
   -2.7468    0.0853   -0.3860 C   0  0  3  0  0  0  0  0  0  0  0  0
   -4.2876    0.2738   -0.6578 C   0  0  3  0  0  0  0  0  0  0  0  0
   -2.1670   -1.2705   -0.8752 C   0  0  0  0  0  0  0  0  0  0  0  0
   -0.6452   -1.4051   -0.6690 C   0  0  0  0  0  0  0  0  0  0  0  0
    0.1439   -0.2361   -1.3048 C   0  0  3  0  0  0  0  0  0  0  0  0
   -0.4135    1.0349   -0.6333 C   0  0  3  0  0  0  0  0  0  0  0  0
    0.5608    2.1336   -1.0455 C   0  0  0  0  0  0  0  0  0  0  0  0
    1.9113    1.4074   -1.0502 C   0  0  0  0  0  0  0  0  0  0  0  0
    1.6396   -0.1106   -0.8904 C   0  0  3  0  0  0  0  0  0  0  0  0
   -0.0038   -0.2540   -2.8505 C   0  0  0  0  0  0  0  0  0  0  0  0
   -4.6261    0.0851   -2.1571 C   0  0  0  0  0  0  0  0  0  0  0  0
    2.7296   -0.9779   -1.5935 C   0  0  3  0  0  0  0  0  0  0  0  0
    2.4209   -2.4842   -1.4851 C   0  0  0  0  0  0  0  0  0  0  0  0
    4.1300   -0.7033   -0.9864 C   0  0  0  0  0  0  0  0  0  0  0  0
    5.3042   -1.1719   -1.8647 C   0  0  0  0  0  0  0  0  0  0  0  0
    6.6941   -0.9826   -1.2263 C   0  0  0  0  0  0  0  0  0  0  0  0
    7.0845    0.4804   -0.9162 C   0  0  0  0  0  0  0  0  0  0  0  0
    6.8038    0.8542    0.5483 C   0  0  0  0  0  0  0  0  0  0  0  0
    8.5840    0.6916   -1.1722 C   0  0  0  0  0  0  0  0  0  0  0  0
   -8.3150    1.0411    0.7224 O   0  0  0  0  0  0  0  0  0  0  0  0
  1  2  1  0  0  0  0
  1 10  1  0  0  0  0
  2  3  1  0  0  0  0
  3  4  1  0  0  0  0
  3 28  1  0  0  0  0
  4  5  1  0  0  0  0
  5  6  2  0  0  0  0
  5 10  1  0  0  0  0
  6  7  1  0  0  0  0
  7  8  1  0  0  0  0
  8  9  1  0  0  0  0
  8 14  1  0  0  0  0
  9 10  1  0  0  0  0
  9 11  1  0  0  0  0
 10 19  1  0  0  0  0
 11 12  1  0  0  0  0
 12 13  1  0  0  0  0
 13 14  1  0  0  0  0
 13 17  1  0  0  0  0
 13 18  1  0  0  0  0
 14 15  1  0  0  0  0
 15 16  1  0  0  0  0
 16 17  1  0  0  0  0
 17 20  1  0  0  0  0
 20 21  1  0  0  0  0
 20 22  1  0  0  0  0
 22 23  1  0  0  0  0
 23 24  1  0  0  0  0
 24 25  1  0  0  0  0
 25 26  1  0  0  0  0
 25 27  1  0  0  0  0
M  END
$$$$
CLR_2rh1_C_413
  PyMOL2.2          3D                             0

 28 31  0  0  1  0  0  0  0  0999 V2000
   -5.0688   -0.7543    0.2120 C   0  0  0  0  0  0  0  0  0  0  0  0
   -6.5931   -0.5375    0.2671 C   0  0  0  0  0  0  0  0  0  0  0  0
   -6.8972    0.8721    0.7748 C   0  0  3  0  0  0  0  0  0  0  0  0
   -6.2135    1.9362   -0.0887 C   0  0  0  0  0  0  0  0  0  0  0  0
   -4.7166    1.6989   -0.2359 C   0  0  0  0  0  0  0  0  0  0  0  0
   -3.8580    2.7139   -0.0463 C   0  0  0  0  0  0  0  0  0  0  0  0
   -2.3580    2.5816   -0.1649 C   0  0  0  0  0  0  0  0  0  0  0  0
   -1.9017    1.2958   -0.8778 C   0  0  3  0  0  0  0  0  0  0  0  0
   -2.7344    0.0908   -0.3749 C   0  0  3  0  0  0  0  0  0  0  0  0
   -4.2763    0.2820   -0.6389 C   0  0  3  0  0  0  0  0  0  0  0  0
   -2.1601   -1.2671   -0.8623 C   0  0  0  0  0  0  0  0  0  0  0  0
   -0.6376   -1.4047   -0.6666 C   0  0  0  0  0  0  0  0  0  0  0  0
    0.1507   -0.2396   -1.3097 C   0  0  3  0  0  0  0  0  0  0  0  0
   -0.4006    1.0341   -0.6368 C   0  0  3  0  0  0  0  0  0  0  0  0
    0.5741    2.1309   -1.0543 C   0  0  0  0  0  0  0  0  0  0  0  0
    1.9223    1.4023   -1.0700 C   0  0  0  0  0  0  0  0  0  0  0  0
    1.6494   -0.1151   -0.9079 C   0  0  3  0  0  0  0  0  0  0  0  0
   -0.0073   -0.2602   -2.8549 C   0  0  0  0  0  0  0  0  0  0  0  0
   -4.6230    0.0914   -2.1359 C   0  0  0  0  0  0  0  0  0  0  0  0
    2.7390   -0.9800   -1.6158 C   0  0  3  0  0  0  0  0  0  0  0  0
    2.4403   -2.4883   -1.5074 C   0  0  0  0  0  0  0  0  0  0  0  0
    4.1368   -0.6834   -1.0123 C   0  0  0  0  0  0  0  0  0  0  0  0
    5.3163   -1.3230   -1.7746 C   0  0  0  0  0  0  0  0  0  0  0  0
    6.6984   -0.8095   -1.3139 C   0  0  0  0  0  0  0  0  0  0  0  0
    7.4129   -1.5751   -0.1783 C   0  0  0  0  0  0  0  0  0  0  0  0
    6.5925   -1.6704    1.1135 C   0  0  0  0  0  0  0  0  0  0  0  0
    7.8387   -2.9861   -0.6125 C   0  0  0  0  0  0  0  0  0  0  0  0
   -8.2944    1.0639    0.7582 O   0  0  0  0  0  0  0  0  0  0  0  0
  1  2  1  0  0  0  0
  1 10  1  0  0  0  0
  2  3  1  0  0  0  0
  3  4  1  0  0  0  0
  3 28  1  0  0  0  0
  4  5  1  0  0  0  0
  5  6  2  0  0  0  0
  5 10  1  0  0  0  0
  6  7  1  0  0  0  0
  7  8  1  0  0  0  0
  8  9  1  0  0  0  0
  8 14  1  0  0  0  0
  9 10  1  0  0  0  0
  9 11  1  0  0  0  0
 10 19  1  0  0  0  0
 11 12  1  0  0  0  0
 12 13  1  0  0  0  0
 13 14  1  0  0  0  0
 13 17  1  0  0  0  0
 13 18  1  0  0  0  0
 14 15  1  0  0  0  0
 15 16  1  0  0  0  0
 16 17  1  0  0  0  0
 17 20  1  0  0  0  0
 20 21  1  0  0  0  0
 20 22  1  0  0  0  0
 22 23  1  0  0  0  0
 23 24  1  0  0  0  0
 24 25  1  0  0  0  0
 25 26  1  0  0  0  0
 25 27  1  0  0  0  0
M  END
$$$$
CLR_2rh1_C_413
  PyMOL2.2          3D                             0

 28 31  0  0  1  0  0  0  0  0999 V2000
   -5.0815   -0.7709    0.1819 C   0  0  0  0  0  0  0  0  0  0  0  0
   -6.6047   -0.5557    0.2341 C   0  0  0  0  0  0  0  0  0  0  0  0
   -6.9122    0.8482    0.7488 C   0  0  3  0  0  0  0  0  0  0  0  0
   -6.2316    1.9189   -0.1103 C   0  0  0  0  0  0  0  0  0  0  0  0
   -4.7346    1.6873   -0.2528 C   0  0  0  0  0  0  0  0  0  0  0  0
   -3.8791    2.7049   -0.0570 C   0  0  0  0  0  0  0  0  0  0  0  0
   -2.3781    2.5772   -0.1697 C   0  0  0  0  0  0  0  0  0  0  0  0
   -1.9149    1.2945   -0.8830 C   0  0  3  0  0  0  0  0  0  0  0  0
   -2.7463    0.0858   -0.3862 C   0  0  3  0  0  0  0  0  0  0  0  0
   -4.2865    0.2736   -0.6582 C   0  0  3  0  0  0  0  0  0  0  0  0
   -2.1666   -1.2709   -0.8734 C   0  0  0  0  0  0  0  0  0  0  0  0
   -0.6443   -1.4049   -0.6680 C   0  0  0  0  0  0  0  0  0  0  0  0
    0.1432   -0.2360   -1.3032 C   0  0  3  0  0  0  0  0  0  0  0  0
   -0.4137    1.0362   -0.6332 C   0  0  3  0  0  0  0  0  0  0  0  0
    0.5621    2.1333   -1.0490 C   0  0  0  0  0  0  0  0  0  0  0  0
    1.9126    1.4071   -1.0499 C   0  0  0  0  0  0  0  0  0  0  0  0
    1.6379   -0.1104   -0.8873 C   0  0  3  0  0  0  0  0  0  0  0  0
   -0.0052   -0.2548   -2.8489 C   0  0  0  0  0  0  0  0  0  0  0  0
   -4.6250    0.0877   -2.1582 C   0  0  0  0  0  0  0  0  0  0  0  0
    2.7225   -0.9776   -1.5948 C   0  0  3  0  0  0  0  0  0  0  0  0
    2.4245   -2.4854   -1.4894 C   0  0  0  0  0  0  0  0  0  0  0  0
    4.1292   -0.7162   -0.9905 C   0  0  0  0  0  0  0  0  0  0  0  0
    5.3157   -1.0891   -1.9052 C   0  0  0  0  0  0  0  0  0  0  0  0
    5.5178   -0.1385   -3.1041 C   0  0  0  0  0  0  0  0  0  0  0  0
    6.5905    0.9504   -2.8956 C   0  0  0  0  0  0  0  0  0  0  0  0
    6.7473    1.7523   -4.1952 C   0  0  0  0  0  0  0  0  0  0  0  0
    6.2570    1.9223   -1.7561 C   0  0  0  0  0  0  0  0  0  0  0  0
   -8.3117    1.0281    0.7384 O   0  0  0  0  0  0  0  0  0  0  0  0
  1  2  1  0  0  0  0
  1 10  1  0  0  0  0
  2  3  1  0  0  0  0
  3  4  1  0  0  0  0
  3 28  1  0  0  0  0
  4  5  1  0  0  0  0
  5  6  2  0  0  0  0
  5 10  1  0  0  0  0
  6  7  1  0  0  0  0
  7  8  1  0  0  0  0
  8  9  1  0  0  0  0
  8 14  1  0  0  0  0
  9 10  1  0  0  0  0
  9 11  1  0  0  0  0
 10 19  1  0  0  0  0
 11 12  1  0  0  0  0
 12 13  1  0  0  0  0
 13 14  1  0  0  0  0
 13 17  1  0  0  0  0
 13 18  1  0  0  0  0
 14 15  1  0  0  0  0
 15 16  1  0  0  0  0
 16 17  1  0  0  0  0
 17 20  1  0  0  0  0
 20 21  1  0  0  0  0
 20 22  1  0  0  0  0
 22 23  1  0  0  0  0
 23 24  1  0  0  0  0
 24 25  1  0  0  0  0
 25 26  1  0  0  0  0
 25 27  1  0  0  0  0
M  END
$$$$
CLR_2rh1_C_413
  PyMOL2.2          3D                             0

 28 31  0  0  1  0  0  0  0  0999 V2000
   -5.0689   -0.7555    0.2093 C   0  0  0  0  0  0  0  0  0  0  0  0
   -6.5919   -0.5390    0.2639 C   0  0  0  0  0  0  0  0  0  0  0  0
   -6.8966    0.8698    0.7737 C   0  0  3  0  0  0  0  0  0  0  0  0
   -6.2133    1.9354   -0.0880 C   0  0  0  0  0  0  0  0  0  0  0  0
   -4.7159    1.6983   -0.2345 C   0  0  0  0  0  0  0  0  0  0  0  0
   -3.8580    2.7134   -0.0436 C   0  0  0  0  0  0  0  0  0  0  0  0
   -2.3579    2.5812   -0.1621 C   0  0  0  0  0  0  0  0  0  0  0  0
   -1.9012    1.2968   -0.8763 C   0  0  3  0  0  0  0  0  0  0  0  0
   -2.7338    0.0912   -0.3744 C   0  0  3  0  0  0  0  0  0  0  0  0
   -4.2753    0.2828   -0.6390 C   0  0  3  0  0  0  0  0  0  0  0  0
   -2.1598   -1.2680   -0.8619 C   0  0  0  0  0  0  0  0  0  0  0  0
   -0.6358   -1.4057   -0.6717 C   0  0  0  0  0  0  0  0  0  0  0  0
    0.1485   -0.2375   -1.3124 C   0  0  3  0  0  0  0  0  0  0  0  0
   -0.4005    1.0336   -0.6331 C   0  0  3  0  0  0  0  0  0  0  0  0
    0.5782    2.1350   -1.0361 C   0  0  0  0  0  0  0  0  0  0  0  0
    1.9221    1.4018   -1.1114 C   0  0  0  0  0  0  0  0  0  0  0  0
    1.6454   -0.1076   -0.9086 C   0  0  3  0  0  0  0  0  0  0  0  0
   -0.0099   -0.2578   -2.8563 C   0  0  0  0  0  0  0  0  0  0  0  0
   -4.6206    0.0936   -2.1360 C   0  0  0  0  0  0  0  0  0  0  0  0
    2.7346   -0.9904   -1.5895 C   0  0  3  0  0  0  0  0  0  0  0  0
    2.4413   -2.4959   -1.4630 C   0  0  0  0  0  0  0  0  0  0  0  0
    4.1428   -0.7298   -0.9814 C   0  0  0  0  0  0  0  0  0  0  0  0
    5.0624    0.1860   -1.8101 C   0  0  0  0  0  0  0  0  0  0  0  0
    5.5671   -0.4960   -3.0987 C   0  0  0  0  0  0  0  0  0  0  0  0
    6.4983    0.3556   -3.9852 C   0  0  0  0  0  0  0  0  0  0  0  0
    5.7977    1.6100   -4.5280 C   0  0  0  0  0  0  0  0  0  0  0  0
    7.7904    0.7605   -3.2623 C   0  0  0  0  0  0  0  0  0  0  0  0
   -8.2947    1.0614    0.7573 O   0  0  0  0  0  0  0  0  0  0  0  0
  1  2  1  0  0  0  0
  1 10  1  0  0  0  0
  2  3  1  0  0  0  0
  3  4  1  0  0  0  0
  3 28  1  0  0  0  0
  4  5  1  0  0  0  0
  5  6  2  0  0  0  0
  5 10  1  0  0  0  0
  6  7  1  0  0  0  0
  7  8  1  0  0  0  0
  8  9  1  0  0  0  0
  8 14  1  0  0  0  0
  9 10  1  0  0  0  0
  9 11  1  0  0  0  0
 10 19  1  0  0  0  0
 11 12  1  0  0  0  0
 12 13  1  0  0  0  0
 13 14  1  0  0  0  0
 13 17  1  0  0  0  0
 13 18  1  0  0  0  0
 14 15  1  0  0  0  0
 15 16  1  0  0  0  0
 16 17  1  0  0  0  0
 17 20  1  0  0  0  0
 20 21  1  0  0  0  0
 20 22  1  0  0  0  0
 22 23  1  0  0  0  0
 23 24  1  0  0  0  0
 24 25  1  0  0  0  0
 25 26  1  0  0  0  0
 25 27  1  0  0  0  0
M  END
$$$$
CLR_2rh1_C_413
  PyMOL2.2          3D                             0

 28 31  0  0  1  0  0  0  0  0999 V2000
   -5.0645   -0.7604    0.2018 C   0  0  0  0  0  0  0  0  0  0  0  0
   -6.5868   -0.5427    0.2738 C   0  0  0  0  0  0  0  0  0  0  0  0
   -6.8840    0.8591    0.8011 C   0  0  3  0  0  0  0  0  0  0  0  0
   -6.2118    1.9326   -0.0621 C   0  0  0  0  0  0  0  0  0  0  0  0
   -4.7165    1.6982   -0.2229 C   0  0  0  0  0  0  0  0  0  0  0  0
   -3.8576    2.7130   -0.0314 C   0  0  0  0  0  0  0  0  0  0  0  0
   -2.3578    2.5820   -0.1636 C   0  0  0  0  0  0  0  0  0  0  0  0
   -1.9065    1.3035   -0.8914 C   0  0  3  0  0  0  0  0  0  0  0  0
   -2.7345    0.0932   -0.3913 C   0  0  3  0  0  0  0  0  0  0  0  0
   -4.2778    0.2857   -0.6422 C   0  0  3  0  0  0  0  0  0  0  0  0
   -2.1647   -1.2638   -0.8912 C   0  0  0  0  0  0  0  0  0  0  0  0
   -0.6407   -1.4068   -0.7025 C   0  0  0  0  0  0  0  0  0  0  0  0
    0.1426   -0.2367   -1.3383 C   0  0  3  0  0  0  0  0  0  0  0  0
   -0.4045    1.0391   -0.6623 C   0  0  3  0  0  0  0  0  0  0  0  0
    0.5776    2.1336   -1.0798 C   0  0  0  0  0  0  0  0  0  0  0  0
    1.9314    1.4099   -1.0876 C   0  0  0  0  0  0  0  0  0  0  0  0
    1.6366   -0.1005   -0.9216 C   0  0  3  0  0  0  0  0  0  0  0  0
   -0.0374   -0.2611   -2.8774 C   0  0  0  0  0  0  0  0  0  0  0  0
   -4.6349    0.1094   -2.1389 C   0  0  0  0  0  0  0  0  0  0  0  0
    2.7809   -1.0156   -1.4602 C   0  0  3  0  0  0  0  0  0  0  0  0
    3.1049   -0.9456   -2.9676 C   0  0  0  0  0  0  0  0  0  0  0  0
    2.5591   -2.4877   -1.0440 C   0  0  0  0  0  0  0  0  0  0  0  0
    3.7555   -3.4425   -1.2251 C   0  0  0  0  0  0  0  0  0  0  0  0
    4.9947   -3.0331   -0.4086 C   0  0  0  0  0  0  0  0  0  0  0  0
    6.0914   -4.1140   -0.3850 C   0  0  0  0  0  0  0  0  0  0  0  0
    6.6779   -4.3852   -1.7778 C   0  0  0  0  0  0  0  0  0  0  0  0
    7.2226   -3.6649    0.5494 C   0  0  0  0  0  0  0  0  0  0  0  0
   -8.2841    1.0427    0.8088 O   0  0  0  0  0  0  0  0  0  0  0  0
  1  2  1  0  0  0  0
  1 10  1  0  0  0  0
  2  3  1  0  0  0  0
  3  4  1  0  0  0  0
  3 28  1  0  0  0  0
  4  5  1  0  0  0  0
  5  6  2  0  0  0  0
  5 10  1  0  0  0  0
  6  7  1  0  0  0  0
  7  8  1  0  0  0  0
  8  9  1  0  0  0  0
  8 14  1  0  0  0  0
  9 10  1  0  0  0  0
  9 11  1  0  0  0  0
 10 19  1  0  0  0  0
 11 12  1  0  0  0  0
 12 13  1  0  0  0  0
 13 14  1  0  0  0  0
 13 17  1  0  0  0  0
 13 18  1  0  0  0  0
 14 15  1  0  0  0  0
 15 16  1  0  0  0  0
 16 17  1  0  0  0  0
 17 20  1  0  0  0  0
 20 21  1  0  0  0  0
 20 22  1  0  0  0  0
 22 23  1  0  0  0  0
 23 24  1  0  0  0  0
 24 25  1  0  0  0  0
 25 26  1  0  0  0  0
 25 27  1  0  0  0  0
M  END
$$$$
CLR_2rh1_C_413
  PyMOL2.2          3D                             0

 28 31  0  0  1  0  0  0  0  0999 V2000
   -3.8830   -1.0947    0.6177 C   0  0  0  0  0  0  0  0  0  0  0  0
   -5.3692   -1.3512    0.9291 C   0  0  0  0  0  0  0  0  0  0  0  0
   -6.0430   -0.0451    1.3432 C   0  0  3  0  0  0  0  0  0  0  0  0
   -5.8812    1.0318    0.2645 C   0  0  0  0  0  0  0  0  0  0  0  0
   -4.4275    1.2499   -0.1270 C   0  0  0  0  0  0  0  0  0  0  0  0
   -3.9348    2.4975   -0.1989 C   0  0  0  0  0  0  0  0  0  0  0  0
   -2.5071    2.8189   -0.5737 C   0  0  0  0  0  0  0  0  0  0  0  0
   -1.7571    1.6445   -1.2269 C   0  0  3  0  0  0  0  0  0  0  0  0
   -2.0655    0.3327   -0.4614 C   0  0  3  0  0  0  0  0  0  0  0  0
   -3.6045   -0.0053   -0.4600 C   0  0  3  0  0  0  0  0  0  0  0  0
   -1.1473   -0.8421   -0.9007 C   0  0  0  0  0  0  0  0  0  0  0  0
    0.3475   -0.4670   -0.9635 C   0  0  0  0  0  0  0  0  0  0  0  0
    0.6103    0.7656   -1.8587 C   0  0  3  0  0  0  0  0  0  0  0  0
   -0.2346    1.8988   -1.2408 C   0  0  3  0  0  0  0  0  0  0  0  0
    0.2603    3.1615   -1.9447 C   0  0  0  0  0  0  0  0  0  0  0  0
    1.7626    2.9015   -2.1276 C   0  0  0  0  0  0  0  0  0  0  0  0
    2.0175    1.4234   -1.7442 C   0  0  3  0  0  0  0  0  0  0  0  0
    0.2427    0.4314   -3.3264 C   0  0  0  0  0  0  0  0  0  0  0  0
   -4.0718   -0.5203   -1.8434 C   0  0  0  0  0  0  0  0  0  0  0  0
    3.3157    0.8280   -2.3863 C   0  0  3  0  0  0  0  0  0  0  0  0
    3.4089    0.8256   -3.9280 C   0  0  0  0  0  0  0  0  0  0  0  0
    3.6779   -0.6026   -1.9273 C   0  0  0  0  0  0  0  0  0  0  0  0
    3.9294   -0.7470   -0.4141 C   0  0  0  0  0  0  0  0  0  0  0  0
    4.2258   -2.1962    0.0157 C   0  0  0  0  0  0  0  0  0  0  0  0
    5.4585   -2.8639   -0.6283 C   0  0  0  0  0  0  0  0  0  0  0  0
    6.7567   -2.0911   -0.3510 C   0  0  0  0  0  0  0  0  0  0  0  0
    5.6014   -4.2890   -0.0782 C   0  0  0  0  0  0  0  0  0  0  0  0
   -7.4116   -0.3064    1.5740 O   0  0  0  0  0  0  0  0  0  0  0  0
  1  2  1  0  0  0  0
  1 10  1  0  0  0  0
  2  3  1  0  0  0  0
  3  4  1  0  0  0  0
  3 28  1  0  0  0  0
  4  5  1  0  0  0  0
  5  6  2  0  0  0  0
  5 10  1  0  0  0  0
  6  7  1  0  0  0  0
  7  8  1  0  0  0  0
  8  9  1  0  0  0  0
  8 14  1  0  0  0  0
  9 10  1  0  0  0  0
  9 11  1  0  0  0  0
 10 19  1  0  0  0  0
 11 12  1  0  0  0  0
 12 13  1  0  0  0  0
 13 14  1  0  0  0  0
 13 17  1  0  0  0  0
 13 18  1  0  0  0  0
 14 15  1  0  0  0  0
 15 16  1  0  0  0  0
 16 17  1  0  0  0  0
 17 20  1  0  0  0  0
 20 21  1  0  0  0  0
 20 22  1  0  0  0  0
 22 23  1  0  0  0  0
 23 24  1  0  0  0  0
 24 25  1  0  0  0  0
 25 26  1  0  0  0  0
 25 27  1  0  0  0  0
M  END
$$$$
CLR_2rh1_C_413
  PyMOL2.2          3D                             0

 28 31  0  0  1  0  0  0  0  0999 V2000
   -5.0662   -0.7616    0.1978 C   0  0  0  0  0  0  0  0  0  0  0  0
   -6.5887   -0.5429    0.2673 C   0  0  0  0  0  0  0  0  0  0  0  0
   -6.8869    0.8589    0.7952 C   0  0  3  0  0  0  0  0  0  0  0  0
   -6.2119    1.9331   -0.0647 C   0  0  0  0  0  0  0  0  0  0  0  0
   -4.7165    1.6979   -0.2218 C   0  0  0  0  0  0  0  0  0  0  0  0
   -3.8570    2.7120   -0.0243 C   0  0  0  0  0  0  0  0  0  0  0  0
   -2.3570    2.5802   -0.1527 C   0  0  0  0  0  0  0  0  0  0  0  0
   -1.9055    1.3045   -0.8855 C   0  0  3  0  0  0  0  0  0  0  0  0
   -2.7350    0.0928   -0.3900 C   0  0  3  0  0  0  0  0  0  0  0  0
   -4.2775    0.2864   -0.6426 C   0  0  3  0  0  0  0  0  0  0  0  0
   -2.1638   -1.2648   -0.8904 C   0  0  0  0  0  0  0  0  0  0  0  0
   -0.6408   -1.4037   -0.6933 C   0  0  0  0  0  0  0  0  0  0  0  0
    0.1432   -0.2370   -1.3331 C   0  0  3  0  0  0  0  0  0  0  0  0
   -0.4025    1.0409   -0.6605 C   0  0  3  0  0  0  0  0  0  0  0  0
    0.5781    2.1326   -1.0866 C   0  0  0  0  0  0  0  0  0  0  0  0
    1.9317    1.4076   -1.1078 C   0  0  0  0  0  0  0  0  0  0  0  0
    1.6388   -0.1002   -0.9215 C   0  0  3  0  0  0  0  0  0  0  0  0
   -0.0477   -0.2640   -2.8714 C   0  0  0  0  0  0  0  0  0  0  0  0
   -4.6316    0.1117   -2.1409 C   0  0  0  0  0  0  0  0  0  0  0  0
    2.7861   -1.0129   -1.4613 C   0  0  3  0  0  0  0  0  0  0  0  0
    3.0783   -0.9699   -2.9758 C   0  0  0  0  0  0  0  0  0  0  0  0
    2.6585   -2.5063   -1.0781 C   0  0  0  0  0  0  0  0  0  0  0  0
    2.5772   -2.8306    0.4285 C   0  0  0  0  0  0  0  0  0  0  0  0
    3.7343   -2.2879    1.2906 C   0  0  0  0  0  0  0  0  0  0  0  0
    5.1513   -2.7125    0.8563 C   0  0  0  0  0  0  0  0  0  0  0  0
    6.1809   -2.0562    1.7856 C   0  0  0  0  0  0  0  0  0  0  0  0
    5.3434   -4.2356    0.8977 C   0  0  0  0  0  0  0  0  0  0  0  0
   -8.2867    1.0427    0.7988 O   0  0  0  0  0  0  0  0  0  0  0  0
  1  2  1  0  0  0  0
  1 10  1  0  0  0  0
  2  3  1  0  0  0  0
  3  4  1  0  0  0  0
  3 28  1  0  0  0  0
  4  5  1  0  0  0  0
  5  6  2  0  0  0  0
  5 10  1  0  0  0  0
  6  7  1  0  0  0  0
  7  8  1  0  0  0  0
  8  9  1  0  0  0  0
  8 14  1  0  0  0  0
  9 10  1  0  0  0  0
  9 11  1  0  0  0  0
 10 19  1  0  0  0  0
 11 12  1  0  0  0  0
 12 13  1  0  0  0  0
 13 14  1  0  0  0  0
 13 17  1  0  0  0  0
 13 18  1  0  0  0  0
 14 15  1  0  0  0  0
 15 16  1  0  0  0  0
 16 17  1  0  0  0  0
 17 20  1  0  0  0  0
 20 21  1  0  0  0  0
 20 22  1  0  0  0  0
 22 23  1  0  0  0  0
 23 24  1  0  0  0  0
 24 25  1  0  0  0  0
 25 26  1  0  0  0  0
 25 27  1  0  0  0  0
M  END
$$$$
CLR_2rh1_C_413
  PyMOL2.2          3D                             0

 28 31  0  0  1  0  0  0  0  0999 V2000
   -5.0794   -0.7715    0.1806 C   0  0  0  0  0  0  0  0  0  0  0  0
   -6.6043   -0.5578    0.2330 C   0  0  0  0  0  0  0  0  0  0  0  0
   -6.9111    0.8467    0.7496 C   0  0  3  0  0  0  0  0  0  0  0  0
   -6.2311    1.9176   -0.1108 C   0  0  0  0  0  0  0  0  0  0  0  0
   -4.7343    1.6867   -0.2519 C   0  0  0  0  0  0  0  0  0  0  0  0
   -3.8802    2.7046   -0.0569 C   0  0  0  0  0  0  0  0  0  0  0  0
   -2.3786    2.5778   -0.1701 C   0  0  0  0  0  0  0  0  0  0  0  0
   -1.9143    1.2963   -0.8829 C   0  0  3  0  0  0  0  0  0  0  0  0
   -2.7450    0.0861   -0.3863 C   0  0  3  0  0  0  0  0  0  0  0  0
   -4.2858    0.2729   -0.6591 C   0  0  3  0  0  0  0  0  0  0  0  0
   -2.1652   -1.2714   -0.8715 C   0  0  0  0  0  0  0  0  0  0  0  0
   -0.6419   -1.4054   -0.6702 C   0  0  0  0  0  0  0  0  0  0  0  0
    0.1403   -0.2337   -1.3049 C   0  0  3  0  0  0  0  0  0  0  0  0
   -0.4142    1.0382   -0.6314 C   0  0  3  0  0  0  0  0  0  0  0  0
    0.5673    2.1362   -1.0356 C   0  0  0  0  0  0  0  0  0  0  0  0
    1.9161    1.4059   -1.0655 C   0  0  0  0  0  0  0  0  0  0  0  0
    1.6331   -0.1055   -0.8889 C   0  0  3  0  0  0  0  0  0  0  0  0
   -0.0095   -0.2567   -2.8498 C   0  0  0  0  0  0  0  0  0  0  0  0
   -4.6230    0.0884   -2.1588 C   0  0  0  0  0  0  0  0  0  0  0  0
    2.7160   -0.9834   -1.5858 C   0  0  3  0  0  0  0  0  0  0  0  0
    2.4638   -2.4942   -1.4396 C   0  0  0  0  0  0  0  0  0  0  0  0
    4.1583   -0.6702   -1.1142 C   0  0  0  0  0  0  0  0  0  0  0  0
    4.4795   -0.9711    0.3681 C   0  0  0  0  0  0  0  0  0  0  0  0
    5.4197   -2.1734    0.5847 C   0  0  0  0  0  0  0  0  0  0  0  0
    6.8652   -2.0095    0.0660 C   0  0  0  0  0  0  0  0  0  0  0  0
    7.6112   -0.8563    0.7531 C   0  0  0  0  0  0  0  0  0  0  0  0
    7.6345   -3.3125    0.3137 C   0  0  0  0  0  0  0  0  0  0  0  0
   -8.3108    1.0259    0.7391 O   0  0  0  0  0  0  0  0  0  0  0  0
  1  2  1  0  0  0  0
  1 10  1  0  0  0  0
  2  3  1  0  0  0  0
  3  4  1  0  0  0  0
  3 28  1  0  0  0  0
  4  5  1  0  0  0  0
  5  6  2  0  0  0  0
  5 10  1  0  0  0  0
  6  7  1  0  0  0  0
  7  8  1  0  0  0  0
  8  9  1  0  0  0  0
  8 14  1  0  0  0  0
  9 10  1  0  0  0  0
  9 11  1  0  0  0  0
 10 19  1  0  0  0  0
 11 12  1  0  0  0  0
 12 13  1  0  0  0  0
 13 14  1  0  0  0  0
 13 17  1  0  0  0  0
 13 18  1  0  0  0  0
 14 15  1  0  0  0  0
 15 16  1  0  0  0  0
 16 17  1  0  0  0  0
 17 20  1  0  0  0  0
 20 21  1  0  0  0  0
 20 22  1  0  0  0  0
 22 23  1  0  0  0  0
 23 24  1  0  0  0  0
 24 25  1  0  0  0  0
 25 26  1  0  0  0  0
 25 27  1  0  0  0  0
M  END
$$$$
CLR_2rh1_C_413
  PyMOL2.2          3D                             0

 28 31  0  0  1  0  0  0  0  0999 V2000
   -5.0641   -0.7607    0.2020 C   0  0  0  0  0  0  0  0  0  0  0  0
   -6.5871   -0.5434    0.2726 C   0  0  0  0  0  0  0  0  0  0  0  0
   -6.8849    0.8591    0.7991 C   0  0  3  0  0  0  0  0  0  0  0  0
   -6.2118    1.9323   -0.0631 C   0  0  0  0  0  0  0  0  0  0  0  0
   -4.7166    1.6987   -0.2231 C   0  0  0  0  0  0  0  0  0  0  0  0
   -3.8569    2.7130   -0.0304 C   0  0  0  0  0  0  0  0  0  0  0  0
   -2.3577    2.5819   -0.1611 C   0  0  0  0  0  0  0  0  0  0  0  0
   -1.9066    1.3043   -0.8906 C   0  0  3  0  0  0  0  0  0  0  0  0
   -2.7344    0.0928   -0.3905 C   0  0  3  0  0  0  0  0  0  0  0  0
   -4.2777    0.2857   -0.6423 C   0  0  3  0  0  0  0  0  0  0  0  0
   -2.1639   -1.2642   -0.8899 C   0  0  0  0  0  0  0  0  0  0  0  0
   -0.6397   -1.4063   -0.7009 C   0  0  0  0  0  0  0  0  0  0  0  0
    0.1420   -0.2360   -1.3379 C   0  0  3  0  0  0  0  0  0  0  0  0
   -0.4032    1.0394   -0.6617 C   0  0  3  0  0  0  0  0  0  0  0  0
    0.5778    2.1340   -1.0795 C   0  0  0  0  0  0  0  0  0  0  0  0
    1.9320    1.4102   -1.0908 C   0  0  0  0  0  0  0  0  0  0  0  0
    1.6358   -0.0996   -0.9230 C   0  0  3  0  0  0  0  0  0  0  0  0
   -0.0385   -0.2611   -2.8770 C   0  0  0  0  0  0  0  0  0  0  0  0
   -4.6333    0.1092   -2.1391 C   0  0  0  0  0  0  0  0  0  0  0  0
    2.7781   -1.0176   -1.4608 C   0  0  3  0  0  0  0  0  0  0  0  0
    3.1123   -0.9439   -2.9657 C   0  0  0  0  0  0  0  0  0  0  0  0
    2.5423   -2.4922   -1.0558 C   0  0  0  0  0  0  0  0  0  0  0  0
    3.7492   -3.4415   -1.1999 C   0  0  0  0  0  0  0  0  0  0  0  0
    5.0254   -3.0324   -0.4382 C   0  0  0  0  0  0  0  0  0  0  0  0
    4.8517   -2.7757    1.0723 C   0  0  0  0  0  0  0  0  0  0  0  0
    4.3599   -4.0222    1.8229 C   0  0  0  0  0  0  0  0  0  0  0  0
    6.1955   -2.3346    1.6666 C   0  0  0  0  0  0  0  0  0  0  0  0
   -8.2847    1.0427    0.8047 O   0  0  0  0  0  0  0  0  0  0  0  0
  1  2  1  0  0  0  0
  1 10  1  0  0  0  0
  2  3  1  0  0  0  0
  3  4  1  0  0  0  0
  3 28  1  0  0  0  0
  4  5  1  0  0  0  0
  5  6  2  0  0  0  0
  5 10  1  0  0  0  0
  6  7  1  0  0  0  0
  7  8  1  0  0  0  0
  8  9  1  0  0  0  0
  8 14  1  0  0  0  0
  9 10  1  0  0  0  0
  9 11  1  0  0  0  0
 10 19  1  0  0  0  0
 11 12  1  0  0  0  0
 12 13  1  0  0  0  0
 13 14  1  0  0  0  0
 13 17  1  0  0  0  0
 13 18  1  0  0  0  0
 14 15  1  0  0  0  0
 15 16  1  0  0  0  0
 16 17  1  0  0  0  0
 17 20  1  0  0  0  0
 20 21  1  0  0  0  0
 20 22  1  0  0  0  0
 22 23  1  0  0  0  0
 23 24  1  0  0  0  0
 24 25  1  0  0  0  0
 25 26  1  0  0  0  0
 25 27  1  0  0  0  0
M  END
$$$$
CLR_2rh1_C_413
  PyMOL2.2          3D                             0

 28 31  0  0  1  0  0  0  0  0999 V2000
   -5.0660   -0.7616    0.1988 C   0  0  0  0  0  0  0  0  0  0  0  0
   -6.5891   -0.5433    0.2666 C   0  0  0  0  0  0  0  0  0  0  0  0
   -6.8878    0.8587    0.7929 C   0  0  3  0  0  0  0  0  0  0  0  0
   -6.2118    1.9335   -0.0670 C   0  0  0  0  0  0  0  0  0  0  0  0
   -4.7169    1.6987   -0.2218 C   0  0  0  0  0  0  0  0  0  0  0  0
   -3.8572    2.7115   -0.0237 C   0  0  0  0  0  0  0  0  0  0  0  0
   -2.3571    2.5801   -0.1492 C   0  0  0  0  0  0  0  0  0  0  0  0
   -1.9058    1.3047   -0.8841 C   0  0  3  0  0  0  0  0  0  0  0  0
   -2.7349    0.0920   -0.3895 C   0  0  3  0  0  0  0  0  0  0  0  0
   -4.2768    0.2862   -0.6435 C   0  0  3  0  0  0  0  0  0  0  0  0
   -2.1634   -1.2644   -0.8899 C   0  0  0  0  0  0  0  0  0  0  0  0
   -0.6407   -1.4020   -0.6913 C   0  0  0  0  0  0  0  0  0  0  0  0
    0.1432   -0.2363   -1.3327 C   0  0  3  0  0  0  0  0  0  0  0  0
   -0.4014    1.0410   -0.6590 C   0  0  3  0  0  0  0  0  0  0  0  0
    0.5783    2.1332   -1.0871 C   0  0  0  0  0  0  0  0  0  0  0  0
    1.9316    1.4079   -1.1102 C   0  0  0  0  0  0  0  0  0  0  0  0
    1.6400   -0.1005   -0.9219 C   0  0  3  0  0  0  0  0  0  0  0  0
   -0.0491   -0.2642   -2.8704 C   0  0  0  0  0  0  0  0  0  0  0  0
   -4.6306    0.1110   -2.1406 C   0  0  0  0  0  0  0  0  0  0  0  0
    2.7849   -1.0147   -1.4643 C   0  0  3  0  0  0  0  0  0  0  0  0
    3.0781   -0.9678   -2.9793 C   0  0  0  0  0  0  0  0  0  0  0  0
    2.6545   -2.5093   -1.0862 C   0  0  0  0  0  0  0  0  0  0  0  0
    2.5245   -2.8481    0.4110 C   0  0  0  0  0  0  0  0  0  0  0  0
    3.7155   -2.3544    1.2550 C   0  0  0  0  0  0  0  0  0  0  0  0
    3.6782   -2.7317    2.7498 C   0  0  0  0  0  0  0  0  0  0  0  0
    2.4567   -2.1405    3.4684 C   0  0  0  0  0  0  0  0  0  0  0  0
    3.7222   -4.2496    2.9752 C   0  0  0  0  0  0  0  0  0  0  0  0
   -8.2878    1.0418    0.7950 O   0  0  0  0  0  0  0  0  0  0  0  0
  1  2  1  0  0  0  0
  1 10  1  0  0  0  0
  2  3  1  0  0  0  0
  3  4  1  0  0  0  0
  3 28  1  0  0  0  0
  4  5  1  0  0  0  0
  5  6  2  0  0  0  0
  5 10  1  0  0  0  0
  6  7  1  0  0  0  0
  7  8  1  0  0  0  0
  8  9  1  0  0  0  0
  8 14  1  0  0  0  0
  9 10  1  0  0  0  0
  9 11  1  0  0  0  0
 10 19  1  0  0  0  0
 11 12  1  0  0  0  0
 12 13  1  0  0  0  0
 13 14  1  0  0  0  0
 13 17  1  0  0  0  0
 13 18  1  0  0  0  0
 14 15  1  0  0  0  0
 15 16  1  0  0  0  0
 16 17  1  0  0  0  0
 17 20  1  0  0  0  0
 20 21  1  0  0  0  0
 20 22  1  0  0  0  0
 22 23  1  0  0  0  0
 23 24  1  0  0  0  0
 24 25  1  0  0  0  0
 25 26  1  0  0  0  0
 25 27  1  0  0  0  0
M  END
$$$$
CLR_2rh1_C_413
  PyMOL2.2          3D                             0

 28 31  0  0  1  0  0  0  0  0999 V2000
   -5.0817   -0.7700    0.1820 C   0  0  0  0  0  0  0  0  0  0  0  0
   -6.6053   -0.5557    0.2337 C   0  0  0  0  0  0  0  0  0  0  0  0
   -6.9129    0.8483    0.7496 C   0  0  3  0  0  0  0  0  0  0  0  0
   -6.2321    1.9187   -0.1113 C   0  0  0  0  0  0  0  0  0  0  0  0
   -4.7350    1.6879   -0.2526 C   0  0  0  0  0  0  0  0  0  0  0  0
   -3.8803    2.7047   -0.0563 C   0  0  0  0  0  0  0  0  0  0  0  0
   -2.3783    2.5771   -0.1699 C   0  0  0  0  0  0  0  0  0  0  0  0
   -1.9151    1.2944   -0.8820 C   0  0  3  0  0  0  0  0  0  0  0  0
   -2.7462    0.0861   -0.3860 C   0  0  3  0  0  0  0  0  0  0  0  0
   -4.2870    0.2733   -0.6582 C   0  0  3  0  0  0  0  0  0  0  0  0
   -2.1664   -1.2704   -0.8739 C   0  0  0  0  0  0  0  0  0  0  0  0
   -0.6447   -1.4043   -0.6681 C   0  0  0  0  0  0  0  0  0  0  0  0
    0.1435   -0.2353   -1.3025 C   0  0  3  0  0  0  0  0  0  0  0  0
   -0.4133    1.0359   -0.6323 C   0  0  3  0  0  0  0  0  0  0  0  0
    0.5616    2.1339   -1.0471 C   0  0  0  0  0  0  0  0  0  0  0  0
    1.9116    1.4079   -1.0515 C   0  0  0  0  0  0  0  0  0  0  0  0
    1.6391   -0.1102   -0.8900 C   0  0  3  0  0  0  0  0  0  0  0  0
   -0.0047   -0.2552   -2.8492 C   0  0  0  0  0  0  0  0  0  0  0  0
   -4.6246    0.0872   -2.1575 C   0  0  0  0  0  0  0  0  0  0  0  0
    2.7252   -0.9806   -1.5946 C   0  0  3  0  0  0  0  0  0  0  0  0
    2.4164   -2.4864   -1.4800 C   0  0  0  0  0  0  0  0  0  0  0  0
    4.1303   -0.7141   -0.9948 C   0  0  0  0  0  0  0  0  0  0  0  0
    5.2895   -1.1223   -1.9225 C   0  0  0  0  0  0  0  0  0  0  0  0
    6.6877   -1.0814   -1.2693 C   0  0  0  0  0  0  0  0  0  0  0  0
    7.2729    0.2680   -0.7903 C   0  0  0  0  0  0  0  0  0  0  0  0
    7.0315    1.4157   -1.7796 C   0  0  0  0  0  0  0  0  0  0  0  0
    6.8063    0.6723    0.6164 C   0  0  0  0  0  0  0  0  0  0  0  0
   -8.3123    1.0283    0.7378 O   0  0  0  0  0  0  0  0  0  0  0  0
  1  2  1  0  0  0  0
  1 10  1  0  0  0  0
  2  3  1  0  0  0  0
  3  4  1  0  0  0  0
  3 28  1  0  0  0  0
  4  5  1  0  0  0  0
  5  6  2  0  0  0  0
  5 10  1  0  0  0  0
  6  7  1  0  0  0  0
  7  8  1  0  0  0  0
  8  9  1  0  0  0  0
  8 14  1  0  0  0  0
  9 10  1  0  0  0  0
  9 11  1  0  0  0  0
 10 19  1  0  0  0  0
 11 12  1  0  0  0  0
 12 13  1  0  0  0  0
 13 14  1  0  0  0  0
 13 17  1  0  0  0  0
 13 18  1  0  0  0  0
 14 15  1  0  0  0  0
 15 16  1  0  0  0  0
 16 17  1  0  0  0  0
 17 20  1  0  0  0  0
 20 21  1  0  0  0  0
 20 22  1  0  0  0  0
 22 23  1  0  0  0  0
 23 24  1  0  0  0  0
 24 25  1  0  0  0  0
 25 26  1  0  0  0  0
 25 27  1  0  0  0  0
M  END
$$$$
CLR_2rh1_C_413
  PyMOL2.2          3D                             0

 28 31  0  0  1  0  0  0  0  0999 V2000
   -5.0301   -0.7329    0.2662 C   0  0  0  0  0  0  0  0  0  0  0  0
   -6.5517   -0.5140    0.3524 C   0  0  0  0  0  0  0  0  0  0  0  0
   -6.8429    0.8903    0.8764 C   0  0  3  0  0  0  0  0  0  0  0  0
   -6.1796    1.9597    0.0013 C   0  0  0  0  0  0  0  0  0  0  0  0
   -4.6867    1.7248   -0.1737 C   0  0  0  0  0  0  0  0  0  0  0  0
   -3.8254    2.7414    0.0013 C   0  0  0  0  0  0  0  0  0  0  0  0
   -2.3273    2.6115   -0.1460 C   0  0  0  0  0  0  0  0  0  0  0  0
   -1.8837    1.3278   -0.8691 C   0  0  3  0  0  0  0  0  0  0  0  0
   -2.7063    0.1176   -0.3528 C   0  0  3  0  0  0  0  0  0  0  0  0
   -4.2513    0.3102   -0.5900 C   0  0  3  0  0  0  0  0  0  0  0  0
   -2.1437   -1.2510   -0.8375 C   0  0  0  0  0  0  0  0  0  0  0  0
   -0.6144   -1.3885   -0.6937 C   0  0  0  0  0  0  0  0  0  0  0  0
    0.1373   -0.2070   -1.3415 C   0  0  3  0  0  0  0  0  0  0  0  0
   -0.3807    1.0659   -0.6487 C   0  0  3  0  0  0  0  0  0  0  0  0
    0.6185    2.1495   -1.0631 C   0  0  0  0  0  0  0  0  0  0  0  0
    1.9513    1.3927   -1.2076 C   0  0  0  0  0  0  0  0  0  0  0  0
    1.6351   -0.0990   -0.9555 C   0  0  3  0  0  0  0  0  0  0  0  0
   -0.0674   -0.2310   -2.8796 C   0  0  0  0  0  0  0  0  0  0  0  0
   -4.6223    0.1266   -2.0825 C   0  0  0  0  0  0  0  0  0  0  0  0
    2.6071   -1.1717   -1.5360 C   0  0  3  0  0  0  0  0  0  0  0  0
    3.6558   -1.5561   -0.4758 C   0  0  0  0  0  0  0  0  0  0  0  0
    3.2910   -0.8665   -2.8942 C   0  0  0  0  0  0  0  0  0  0  0  0
    4.5923   -0.0387   -2.8475 C   0  0  0  0  0  0  0  0  0  0  0  0
    5.0204    0.3694   -4.2662 C   0  0  0  0  0  0  0  0  0  0  0  0
    6.3811    1.0912   -4.3114 C   0  0  0  0  0  0  0  0  0  0  0  0
    6.7751    1.3315   -5.7741 C   0  0  0  0  0  0  0  0  0  0  0  0
    6.3569    2.4411   -3.5777 C   0  0  0  0  0  0  0  0  0  0  0  0
   -8.2426    1.0737    0.8975 O   0  0  0  0  0  0  0  0  0  0  0  0
  1  2  1  0  0  0  0
  1 10  1  0  0  0  0
  2  3  1  0  0  0  0
  3  4  1  0  0  0  0
  3 28  1  0  0  0  0
  4  5  1  0  0  0  0
  5  6  2  0  0  0  0
  5 10  1  0  0  0  0
  6  7  1  0  0  0  0
  7  8  1  0  0  0  0
  8  9  1  0  0  0  0
  8 14  1  0  0  0  0
  9 10  1  0  0  0  0
  9 11  1  0  0  0  0
 10 19  1  0  0  0  0
 11 12  1  0  0  0  0
 12 13  1  0  0  0  0
 13 14  1  0  0  0  0
 13 17  1  0  0  0  0
 13 18  1  0  0  0  0
 14 15  1  0  0  0  0
 15 16  1  0  0  0  0
 16 17  1  0  0  0  0
 17 20  1  0  0  0  0
 20 21  1  0  0  0  0
 20 22  1  0  0  0  0
 22 23  1  0  0  0  0
 23 24  1  0  0  0  0
 24 25  1  0  0  0  0
 25 26  1  0  0  0  0
 25 27  1  0  0  0  0
M  END
$$$$
CLR_2rh1_C_413
  PyMOL2.2          3D                             0

 28 31  0  0  1  0  0  0  0  0999 V2000
   -4.5258   -0.9397    0.4344 C   0  0  0  0  0  0  0  0  0  0  0  0
   -6.0538   -0.9955    0.6204 C   0  0  0  0  0  0  0  0  0  0  0  0
   -6.5668    0.3625    1.0951 C   0  0  3  0  0  0  0  0  0  0  0  0
   -6.1677    1.4793    0.1233 C   0  0  0  0  0  0  0  0  0  0  0  0
   -4.6708    1.5077   -0.1475 C   0  0  0  0  0  0  0  0  0  0  0  0
   -4.0023    2.6708   -0.0822 C   0  0  0  0  0  0  0  0  0  0  0  0
   -2.5177    2.8031   -0.3309 C   0  0  0  0  0  0  0  0  0  0  0  0
   -1.8905    1.5814   -1.0239 C   0  0  3  0  0  0  0  0  0  0  0  0
   -2.4428    0.2774   -0.3928 C   0  0  3  0  0  0  0  0  0  0  0  0
   -4.0096    0.1723   -0.5263 C   0  0  3  0  0  0  0  0  0  0  0  0
   -1.6689   -0.9851   -0.8657 C   0  0  0  0  0  0  0  0  0  0  0  0
   -0.1355   -0.8379   -0.7965 C   0  0  0  0  0  0  0  0  0  0  0  0
    0.3710    0.4089   -1.5557 C   0  0  3  0  0  0  0  0  0  0  0  0
   -0.3522    1.6076   -0.9053 C   0  0  3  0  0  0  0  0  0  0  0  0
    0.3773    2.8306   -1.4606 C   0  0  0  0  0  0  0  0  0  0  0  0
    1.8382    2.3644   -1.5404 C   0  0  0  0  0  0  0  0  0  0  0  0
    1.8404    0.8399   -1.2703 C   0  0  3  0  0  0  0  0  0  0  0  0
    0.0897    0.2496   -3.0706 C   0  0  0  0  0  0  0  0  0  0  0  0
   -4.4325   -0.1673   -1.9763 C   0  0  0  0  0  0  0  0  0  0  0  0
    3.0940    0.1149   -1.8500 C   0  0  3  0  0  0  0  0  0  0  0  0
    3.2892    0.1357   -3.3817 C   0  0  0  0  0  0  0  0  0  0  0  0
    3.1831   -1.3409   -1.3356 C   0  0  0  0  0  0  0  0  0  0  0  0
    4.5123   -2.0864   -1.5705 C   0  0  0  0  0  0  0  0  0  0  0  0
    5.7162   -1.4412   -0.8610 C   0  0  0  0  0  0  0  0  0  0  0  0
    7.0363   -2.2096   -1.0704 C   0  0  0  0  0  0  0  0  0  0  0  0
    8.1916   -1.3953   -0.4732 C   0  0  0  0  0  0  0  0  0  0  0  0
    7.0265   -3.5992   -0.4146 C   0  0  0  0  0  0  0  0  0  0  0  0
   -7.9718    0.2912    1.2083 O   0  0  0  0  0  0  0  0  0  0  0  0
  1  2  1  0  0  0  0
  1 10  1  0  0  0  0
  2  3  1  0  0  0  0
  3  4  1  0  0  0  0
  3 28  1  0  0  0  0
  4  5  1  0  0  0  0
  5  6  2  0  0  0  0
  5 10  1  0  0  0  0
  6  7  1  0  0  0  0
  7  8  1  0  0  0  0
  8  9  1  0  0  0  0
  8 14  1  0  0  0  0
  9 10  1  0  0  0  0
  9 11  1  0  0  0  0
 10 19  1  0  0  0  0
 11 12  1  0  0  0  0
 12 13  1  0  0  0  0
 13 14  1  0  0  0  0
 13 17  1  0  0  0  0
 13 18  1  0  0  0  0
 14 15  1  0  0  0  0
 15 16  1  0  0  0  0
 16 17  1  0  0  0  0
 17 20  1  0  0  0  0
 20 21  1  0  0  0  0
 20 22  1  0  0  0  0
 22 23  1  0  0  0  0
 23 24  1  0  0  0  0
 24 25  1  0  0  0  0
 25 26  1  0  0  0  0
 25 27  1  0  0  0  0
M  END
$$$$
CLR_2rh1_C_413
  PyMOL2.2          3D                             0

 28 31  0  0  1  0  0  0  0  0999 V2000
   -5.0297   -0.7324    0.2658 C   0  0  0  0  0  0  0  0  0  0  0  0
   -6.5522   -0.5141    0.3529 C   0  0  0  0  0  0  0  0  0  0  0  0
   -6.8426    0.8905    0.8766 C   0  0  3  0  0  0  0  0  0  0  0  0
   -6.1793    1.9595    0.0017 C   0  0  0  0  0  0  0  0  0  0  0  0
   -4.6867    1.7247   -0.1742 C   0  0  0  0  0  0  0  0  0  0  0  0
   -3.8257    2.7412    0.0007 C   0  0  0  0  0  0  0  0  0  0  0  0
   -2.3283    2.6110   -0.1465 C   0  0  0  0  0  0  0  0  0  0  0  0
   -1.8836    1.3285   -0.8696 C   0  0  3  0  0  0  0  0  0  0  0  0
   -2.7057    0.1184   -0.3528 C   0  0  3  0  0  0  0  0  0  0  0  0
   -4.2515    0.3094   -0.5903 C   0  0  3  0  0  0  0  0  0  0  0  0
   -2.1443   -1.2506   -0.8386 C   0  0  0  0  0  0  0  0  0  0  0  0
   -0.6141   -1.3888   -0.6940 C   0  0  0  0  0  0  0  0  0  0  0  0
    0.1374   -0.2072   -1.3415 C   0  0  3  0  0  0  0  0  0  0  0  0
   -0.3813    1.0659   -0.6495 C   0  0  3  0  0  0  0  0  0  0  0  0
    0.6192    2.1492   -1.0631 C   0  0  0  0  0  0  0  0  0  0  0  0
    1.9512    1.3927   -1.2067 C   0  0  0  0  0  0  0  0  0  0  0  0
    1.6348   -0.0989   -0.9545 C   0  0  3  0  0  0  0  0  0  0  0  0
   -0.0659   -0.2308   -2.8800 C   0  0  0  0  0  0  0  0  0  0  0  0
   -4.6232    0.1266   -2.0827 C   0  0  0  0  0  0  0  0  0  0  0  0
    2.6073   -1.1720   -1.5350 C   0  0  3  0  0  0  0  0  0  0  0  0
    3.6545   -1.5567   -0.4730 C   0  0  0  0  0  0  0  0  0  0  0  0
    3.2916   -0.8659   -2.8936 C   0  0  0  0  0  0  0  0  0  0  0  0
    4.5950   -0.0419   -2.8482 C   0  0  0  0  0  0  0  0  0  0  0  0
    5.0377    0.3457   -4.2687 C   0  0  0  0  0  0  0  0  0  0  0  0
    6.2783    1.2596   -4.2956 C   0  0  0  0  0  0  0  0  0  0  0  0
    7.5337    0.5676   -3.7443 C   0  0  0  0  0  0  0  0  0  0  0  0
    6.5502    1.6965   -5.7410 C   0  0  0  0  0  0  0  0  0  0  0  0
   -8.2426    1.0736    0.8993 O   0  0  0  0  0  0  0  0  0  0  0  0
  1  2  1  0  0  0  0
  1 10  1  0  0  0  0
  2  3  1  0  0  0  0
  3  4  1  0  0  0  0
  3 28  1  0  0  0  0
  4  5  1  0  0  0  0
  5  6  2  0  0  0  0
  5 10  1  0  0  0  0
  6  7  1  0  0  0  0
  7  8  1  0  0  0  0
  8  9  1  0  0  0  0
  8 14  1  0  0  0  0
  9 10  1  0  0  0  0
  9 11  1  0  0  0  0
 10 19  1  0  0  0  0
 11 12  1  0  0  0  0
 12 13  1  0  0  0  0
 13 14  1  0  0  0  0
 13 17  1  0  0  0  0
 13 18  1  0  0  0  0
 14 15  1  0  0  0  0
 15 16  1  0  0  0  0
 16 17  1  0  0  0  0
 17 20  1  0  0  0  0
 20 21  1  0  0  0  0
 20 22  1  0  0  0  0
 22 23  1  0  0  0  0
 23 24  1  0  0  0  0
 24 25  1  0  0  0  0
 25 26  1  0  0  0  0
 25 27  1  0  0  0  0
M  END
$$$$
CLR_2rh1_C_413
  PyMOL2.2          3D                             0

 28 31  0  0  1  0  0  0  0  0999 V2000
   -5.0482   -0.7684    0.1986 C   0  0  0  0  0  0  0  0  0  0  0  0
   -6.5727   -0.5606    0.2613 C   0  0  0  0  0  0  0  0  0  0  0  0
   -6.8825    0.8416    0.7835 C   0  0  3  0  0  0  0  0  0  0  0  0
   -6.2126    1.9170   -0.0784 C   0  0  0  0  0  0  0  0  0  0  0  0
   -4.7156    1.6935   -0.2308 C   0  0  0  0  0  0  0  0  0  0  0  0
   -3.8643    2.7145   -0.0385 C   0  0  0  0  0  0  0  0  0  0  0  0
   -2.3639    2.5952   -0.1615 C   0  0  0  0  0  0  0  0  0  0  0  0
   -1.8999    1.3185   -0.8828 C   0  0  3  0  0  0  0  0  0  0  0  0
   -2.7214    0.1005   -0.3826 C   0  0  3  0  0  0  0  0  0  0  0  0
   -4.2645    0.2814   -0.6436 C   0  0  3  0  0  0  0  0  0  0  0  0
   -2.1424   -1.2647   -0.8611 C   0  0  0  0  0  0  0  0  0  0  0  0
   -0.6146   -1.3918   -0.6957 C   0  0  0  0  0  0  0  0  0  0  0  0
    0.1366   -0.2028   -1.3287 C   0  0  3  0  0  0  0  0  0  0  0  0
   -0.3979    1.0666   -0.6429 C   0  0  3  0  0  0  0  0  0  0  0  0
    0.6012    2.1541   -1.0442 C   0  0  0  0  0  0  0  0  0  0  0  0
    1.9475    1.4113   -1.1268 C   0  0  0  0  0  0  0  0  0  0  0  0
    1.6261   -0.0866   -0.9168 C   0  0  3  0  0  0  0  0  0  0  0  0
   -0.0538   -0.2244   -2.8676 C   0  0  0  0  0  0  0  0  0  0  0  0
   -4.6112    0.0991   -2.1417 C   0  0  0  0  0  0  0  0  0  0  0  0
    2.6433   -1.1226   -1.4874 C   0  0  3  0  0  0  0  0  0  0  0  0
    3.7666   -1.3293   -0.4508 C   0  0  0  0  0  0  0  0  0  0  0  0
    3.2788   -0.7654   -2.8536 C   0  0  0  0  0  0  0  0  0  0  0  0
    3.9831   -1.9515   -3.5404 C   0  0  0  0  0  0  0  0  0  0  0  0
    4.4868   -1.6044   -4.9553 C   0  0  0  0  0  0  0  0  0  0  0  0
    3.5703   -2.0676   -6.1065 C   0  0  0  0  0  0  0  0  0  0  0  0
    2.1756   -1.4303   -6.0710 C   0  0  0  0  0  0  0  0  0  0  0  0
    4.2360   -1.7242   -7.4455 C   0  0  0  0  0  0  0  0  0  0  0  0
   -8.2838    1.0144    0.7833 O   0  0  0  0  0  0  0  0  0  0  0  0
  1  2  1  0  0  0  0
  1 10  1  0  0  0  0
  2  3  1  0  0  0  0
  3  4  1  0  0  0  0
  3 28  1  0  0  0  0
  4  5  1  0  0  0  0
  5  6  2  0  0  0  0
  5 10  1  0  0  0  0
  6  7  1  0  0  0  0
  7  8  1  0  0  0  0
  8  9  1  0  0  0  0
  8 14  1  0  0  0  0
  9 10  1  0  0  0  0
  9 11  1  0  0  0  0
 10 19  1  0  0  0  0
 11 12  1  0  0  0  0
 12 13  1  0  0  0  0
 13 14  1  0  0  0  0
 13 17  1  0  0  0  0
 13 18  1  0  0  0  0
 14 15  1  0  0  0  0
 15 16  1  0  0  0  0
 16 17  1  0  0  0  0
 17 20  1  0  0  0  0
 20 21  1  0  0  0  0
 20 22  1  0  0  0  0
 22 23  1  0  0  0  0
 23 24  1  0  0  0  0
 24 25  1  0  0  0  0
 25 26  1  0  0  0  0
 25 27  1  0  0  0  0
M  END
$$$$
CLR_2rh1_C_413
  PyMOL2.2          3D                             0

 28 31  0  0  1  0  0  0  0  0999 V2000
   -4.4394   -0.9349    0.5600 C   0  0  0  0  0  0  0  0  0  0  0  0
   -5.9580   -1.1624    0.4471 C   0  0  0  0  0  0  0  0  0  0  0  0
   -6.6846    0.1807    0.4593 C   0  0  3  0  0  0  0  0  0  0  0  0
   -6.1780    1.0968   -0.6603 C   0  0  0  0  0  0  0  0  0  0  0  0
   -4.6668    1.2757   -0.6285 C   0  0  0  0  0  0  0  0  0  0  0  0
   -4.1381    2.5072   -0.7264 C   0  0  0  0  0  0  0  0  0  0  0  0
   -2.6549    2.7906   -0.7021 C   0  0  0  0  0  0  0  0  0  0  0  0
   -1.7795    1.5452   -0.9279 C   0  0  3  0  0  0  0  0  0  0  0  0
   -2.3406    0.3501   -0.1120 C   0  0  3  0  0  0  0  0  0  0  0  0
   -3.8200   -0.0028   -0.5237 C   0  0  3  0  0  0  0  0  0  0  0  0
   -1.3735   -0.8713   -0.0736 C   0  0  0  0  0  0  0  0  0  0  0  0
    0.0937   -0.5015    0.2272 C   0  0  0  0  0  0  0  0  0  0  0  0
    0.6149    0.6116   -0.7040 C   0  0  3  0  0  0  0  0  0  0  0  0
   -0.3207    1.8177   -0.5126 C   0  0  3  0  0  0  0  0  0  0  0  0
    0.4303    2.9769   -1.1765 C   0  0  0  0  0  0  0  0  0  0  0  0
    1.9113    2.6725   -0.8870 C   0  0  0  0  0  0  0  0  0  0  0  0
    1.9411    1.2679   -0.2398 C   0  0  3  0  0  0  0  0  0  0  0  0
    0.6782    0.0859   -2.1625 C   0  0  0  0  0  0  0  0  0  0  0  0
   -3.8714   -0.7129   -1.8993 C   0  0  0  0  0  0  0  0  0  0  0  0
    3.2689    0.4615   -0.3564 C   0  0  3  0  0  0  0  0  0  0  0  0
    4.2731    1.0456    0.6575 C   0  0  0  0  0  0  0  0  0  0  0  0
    3.9439    0.4183   -1.7530 C   0  0  0  0  0  0  0  0  0  0  0  0
    4.4873   -0.9654   -2.1570 C   0  0  0  0  0  0  0  0  0  0  0  0
    5.6339   -1.4749   -1.2673 C   0  0  0  0  0  0  0  0  0  0  0  0
    6.3044   -2.7525   -1.8083 C   0  0  0  0  0  0  0  0  0  0  0  0
    7.5070   -3.1038   -0.9224 C   0  0  0  0  0  0  0  0  0  0  0  0
    5.3450   -3.9511   -1.8387 C   0  0  0  0  0  0  0  0  0  0  0  0
   -8.0664   -0.0616    0.3069 O   0  0  0  0  0  0  0  0  0  0  0  0
  1  2  1  0  0  0  0
  1 10  1  0  0  0  0
  2  3  1  0  0  0  0
  3  4  1  0  0  0  0
  3 28  1  0  0  0  0
  4  5  1  0  0  0  0
  5  6  2  0  0  0  0
  5 10  1  0  0  0  0
  6  7  1  0  0  0  0
  7  8  1  0  0  0  0
  8  9  1  0  0  0  0
  8 14  1  0  0  0  0
  9 10  1  0  0  0  0
  9 11  1  0  0  0  0
 10 19  1  0  0  0  0
 11 12  1  0  0  0  0
 12 13  1  0  0  0  0
 13 14  1  0  0  0  0
 13 17  1  0  0  0  0
 13 18  1  0  0  0  0
 14 15  1  0  0  0  0
 15 16  1  0  0  0  0
 16 17  1  0  0  0  0
 17 20  1  0  0  0  0
 20 21  1  0  0  0  0
 20 22  1  0  0  0  0
 22 23  1  0  0  0  0
 23 24  1  0  0  0  0
 24 25  1  0  0  0  0
 25 26  1  0  0  0  0
 25 27  1  0  0  0  0
M  END
$$$$
CLR_2rh1_C_413
  PyMOL2.2          3D                             0

 28 31  0  0  1  0  0  0  0  0999 V2000
   -5.0474   -0.7696    0.1962 C   0  0  0  0  0  0  0  0  0  0  0  0
   -6.5714   -0.5625    0.2639 C   0  0  0  0  0  0  0  0  0  0  0  0
   -6.8793    0.8378    0.7918 C   0  0  3  0  0  0  0  0  0  0  0  0
   -6.2118    1.9166   -0.0687 C   0  0  0  0  0  0  0  0  0  0  0  0
   -4.7143    1.6924   -0.2256 C   0  0  0  0  0  0  0  0  0  0  0  0
   -3.8633    2.7128   -0.0316 C   0  0  0  0  0  0  0  0  0  0  0  0
   -2.3627    2.5942   -0.1595 C   0  0  0  0  0  0  0  0  0  0  0  0
   -1.9019    1.3201   -0.8875 C   0  0  3  0  0  0  0  0  0  0  0  0
   -2.7212    0.0999   -0.3895 C   0  0  3  0  0  0  0  0  0  0  0  0
   -4.2646    0.2828   -0.6452 C   0  0  3  0  0  0  0  0  0  0  0  0
   -2.1449   -1.2634   -0.8739 C   0  0  0  0  0  0  0  0  0  0  0  0
   -0.6164   -1.3931   -0.7070 C   0  0  0  0  0  0  0  0  0  0  0  0
    0.1355   -0.2040   -1.3364 C   0  0  3  0  0  0  0  0  0  0  0  0
   -0.3988    1.0675   -0.6521 C   0  0  3  0  0  0  0  0  0  0  0  0
    0.6026    2.1537   -1.0586 C   0  0  0  0  0  0  0  0  0  0  0  0
    1.9471    1.4069   -1.1472 C   0  0  0  0  0  0  0  0  0  0  0  0
    1.6224   -0.0851   -0.9096 C   0  0  3  0  0  0  0  0  0  0  0  0
   -0.0607   -0.2134   -2.8752 C   0  0  0  0  0  0  0  0  0  0  0  0
   -4.6164    0.1052   -2.1429 C   0  0  0  0  0  0  0  0  0  0  0  0
    2.6568   -1.1272   -1.4292 C   0  0  3  0  0  0  0  0  0  0  0  0
    3.8276   -1.1868   -0.4260 C   0  0  0  0  0  0  0  0  0  0  0  0
    3.2341   -0.8744   -2.8453 C   0  0  0  0  0  0  0  0  0  0  0  0
    3.9378   -2.0716   -3.5221 C   0  0  0  0  0  0  0  0  0  0  0  0
    3.0249   -2.9881   -4.3625 C   0  0  0  0  0  0  0  0  0  0  0  0
    1.9950   -3.8524   -3.6088 C   0  0  0  0  0  0  0  0  0  0  0  0
    1.1823   -4.6654   -4.6255 C   0  0  0  0  0  0  0  0  0  0  0  0
    2.6547   -4.8214   -2.6173 C   0  0  0  0  0  0  0  0  0  0  0  0
   -8.2800    1.0118    0.7956 O   0  0  0  0  0  0  0  0  0  0  0  0
  1  2  1  0  0  0  0
  1 10  1  0  0  0  0
  2  3  1  0  0  0  0
  3  4  1  0  0  0  0
  3 28  1  0  0  0  0
  4  5  1  0  0  0  0
  5  6  2  0  0  0  0
  5 10  1  0  0  0  0
  6  7  1  0  0  0  0
  7  8  1  0  0  0  0
  8  9  1  0  0  0  0
  8 14  1  0  0  0  0
  9 10  1  0  0  0  0
  9 11  1  0  0  0  0
 10 19  1  0  0  0  0
 11 12  1  0  0  0  0
 12 13  1  0  0  0  0
 13 14  1  0  0  0  0
 13 17  1  0  0  0  0
 13 18  1  0  0  0  0
 14 15  1  0  0  0  0
 15 16  1  0  0  0  0
 16 17  1  0  0  0  0
 17 20  1  0  0  0  0
 20 21  1  0  0  0  0
 20 22  1  0  0  0  0
 22 23  1  0  0  0  0
 23 24  1  0  0  0  0
 24 25  1  0  0  0  0
 25 26  1  0  0  0  0
 25 27  1  0  0  0  0
M  END
$$$$
CLR_2rh1_C_413
  PyMOL2.2          3D                             0

 28 31  0  0  1  0  0  0  0  0999 V2000
   -5.0485   -0.7681    0.1983 C   0  0  0  0  0  0  0  0  0  0  0  0
   -6.5728   -0.5608    0.2637 C   0  0  0  0  0  0  0  0  0  0  0  0
   -6.8810    0.8408    0.7877 C   0  0  3  0  0  0  0  0  0  0  0  0
   -6.2129    1.9173   -0.0748 C   0  0  0  0  0  0  0  0  0  0  0  0
   -4.7154    1.6930   -0.2303 C   0  0  0  0  0  0  0  0  0  0  0  0
   -3.8645    2.7149   -0.0398 C   0  0  0  0  0  0  0  0  0  0  0  0
   -2.3641    2.5956   -0.1661 C   0  0  0  0  0  0  0  0  0  0  0  0
   -1.9002    1.3178   -0.8857 C   0  0  3  0  0  0  0  0  0  0  0  0
   -2.7212    0.0998   -0.3844 C   0  0  3  0  0  0  0  0  0  0  0  0
   -4.2648    0.2824   -0.6440 C   0  0  3  0  0  0  0  0  0  0  0  0
   -2.1433   -1.2648   -0.8639 C   0  0  0  0  0  0  0  0  0  0  0  0
   -0.6151   -1.3927   -0.6988 C   0  0  0  0  0  0  0  0  0  0  0  0
    0.1370   -0.2033   -1.3313 C   0  0  3  0  0  0  0  0  0  0  0  0
   -0.3991    1.0655   -0.6454 C   0  0  3  0  0  0  0  0  0  0  0  0
    0.6025    2.1537   -1.0450 C   0  0  0  0  0  0  0  0  0  0  0  0
    1.9477    1.4113   -1.1230 C   0  0  0  0  0  0  0  0  0  0  0  0
    1.6252   -0.0869   -0.9144 C   0  0  3  0  0  0  0  0  0  0  0  0
   -0.0516   -0.2230   -2.8704 C   0  0  0  0  0  0  0  0  0  0  0  0
   -4.6130    0.1002   -2.1410 C   0  0  0  0  0  0  0  0  0  0  0  0
    2.6445   -1.1211   -1.4793 C   0  0  3  0  0  0  0  0  0  0  0  0
    3.7817   -1.2993   -0.4520 C   0  0  0  0  0  0  0  0  0  0  0  0
    3.2695   -0.7778   -2.8549 C   0  0  0  0  0  0  0  0  0  0  0  0
    3.8910   -1.9981   -3.5627 C   0  0  0  0  0  0  0  0  0  0  0  0
    4.4854   -1.6478   -4.9409 C   0  0  0  0  0  0  0  0  0  0  0  0
    6.0072   -1.3962   -4.9482 C   0  0  0  0  0  0  0  0  0  0  0  0
    6.4638   -1.1304   -6.3893 C   0  0  0  0  0  0  0  0  0  0  0  0
    6.4379   -0.2149   -4.0682 C   0  0  0  0  0  0  0  0  0  0  0  0
   -8.2820    1.0143    0.7890 O   0  0  0  0  0  0  0  0  0  0  0  0
  1  2  1  0  0  0  0
  1 10  1  0  0  0  0
  2  3  1  0  0  0  0
  3  4  1  0  0  0  0
  3 28  1  0  0  0  0
  4  5  1  0  0  0  0
  5  6  2  0  0  0  0
  5 10  1  0  0  0  0
  6  7  1  0  0  0  0
  7  8  1  0  0  0  0
  8  9  1  0  0  0  0
  8 14  1  0  0  0  0
  9 10  1  0  0  0  0
  9 11  1  0  0  0  0
 10 19  1  0  0  0  0
 11 12  1  0  0  0  0
 12 13  1  0  0  0  0
 13 14  1  0  0  0  0
 13 17  1  0  0  0  0
 13 18  1  0  0  0  0
 14 15  1  0  0  0  0
 15 16  1  0  0  0  0
 16 17  1  0  0  0  0
 17 20  1  0  0  0  0
 20 21  1  0  0  0  0
 20 22  1  0  0  0  0
 22 23  1  0  0  0  0
 23 24  1  0  0  0  0
 24 25  1  0  0  0  0
 25 26  1  0  0  0  0
 25 27  1  0  0  0  0
M  END
$$$$
CLR_2rh1_C_413
  PyMOL2.2          3D                             0

 28 31  0  0  1  0  0  0  0  0999 V2000
   -5.0904   -0.7470    0.1984 C   0  0  0  0  0  0  0  0  0  0  0  0
   -6.6118   -0.5156    0.2578 C   0  0  0  0  0  0  0  0  0  0  0  0
   -6.8995    0.8913    0.7792 C   0  0  3  0  0  0  0  0  0  0  0  0
   -6.2116    1.9564   -0.0814 C   0  0  0  0  0  0  0  0  0  0  0  0
   -4.7172    1.7082   -0.2308 C   0  0  0  0  0  0  0  0  0  0  0  0
   -3.8497    2.7150   -0.0357 C   0  0  0  0  0  0  0  0  0  0  0  0
   -2.3508    2.5701   -0.1561 C   0  0  0  0  0  0  0  0  0  0  0  0
   -1.9050    1.2844   -0.8738 C   0  0  3  0  0  0  0  0  0  0  0  0
   -2.7487    0.0847   -0.3773 C   0  0  3  0  0  0  0  0  0  0  0  0
   -4.2882    0.2904   -0.6419 C   0  0  3  0  0  0  0  0  0  0  0  0
   -2.1863   -1.2767   -0.8707 C   0  0  0  0  0  0  0  0  0  0  0  0
   -0.6634   -1.4279   -0.6770 C   0  0  0  0  0  0  0  0  0  0  0  0
    0.1352   -0.2663   -1.3130 C   0  0  3  0  0  0  0  0  0  0  0  0
   -0.4072    1.0072   -0.6301 C   0  0  3  0  0  0  0  0  0  0  0  0
    0.5772    2.1014   -1.0311 C   0  0  0  0  0  0  0  0  0  0  0  0
    1.9166    1.3587   -1.0960 C   0  0  0  0  0  0  0  0  0  0  0  0
    1.6340   -0.1501   -0.9062 C   0  0  3  0  0  0  0  0  0  0  0  0
   -0.0204   -0.2774   -2.8581 C   0  0  0  0  0  0  0  0  0  0  0  0
   -4.6347    0.1134   -2.1411 C   0  0  0  0  0  0  0  0  0  0  0  0
    2.7193   -1.0458   -1.5832 C   0  0  3  0  0  0  0  0  0  0  0  0
    2.3810   -2.5443   -1.4768 C   0  0  0  0  0  0  0  0  0  0  0  0
    4.1251   -0.8488   -0.9512 C   0  0  0  0  0  0  0  0  0  0  0  0
    4.9973    0.2201   -1.6390 C   0  0  0  0  0  0  0  0  0  0  0  0
    6.4172    0.3132   -1.0453 C   0  0  0  0  0  0  0  0  0  0  0  0
    6.6115    1.4167    0.0152 C   0  0  0  0  0  0  0  0  0  0  0  0
    5.7377    1.2311    1.2627 C   0  0  0  0  0  0  0  0  0  0  0  0
    8.0845    1.4423    0.4454 C   0  0  0  0  0  0  0  0  0  0  0  0
   -8.2986    1.0868    0.7747 O   0  0  0  0  0  0  0  0  0  0  0  0
  1  2  1  0  0  0  0
  1 10  1  0  0  0  0
  2  3  1  0  0  0  0
  3  4  1  0  0  0  0
  3 28  1  0  0  0  0
  4  5  1  0  0  0  0
  5  6  2  0  0  0  0
  5 10  1  0  0  0  0
  6  7  1  0  0  0  0
  7  8  1  0  0  0  0
  8  9  1  0  0  0  0
  8 14  1  0  0  0  0
  9 10  1  0  0  0  0
  9 11  1  0  0  0  0
 10 19  1  0  0  0  0
 11 12  1  0  0  0  0
 12 13  1  0  0  0  0
 13 14  1  0  0  0  0
 13 17  1  0  0  0  0
 13 18  1  0  0  0  0
 14 15  1  0  0  0  0
 15 16  1  0  0  0  0
 16 17  1  0  0  0  0
 17 20  1  0  0  0  0
 20 21  1  0  0  0  0
 20 22  1  0  0  0  0
 22 23  1  0  0  0  0
 23 24  1  0  0  0  0
 24 25  1  0  0  0  0
 25 26  1  0  0  0  0
 25 27  1  0  0  0  0
M  END
$$$$
CLR_2rh1_C_413
  PyMOL2.2          3D                             0

 28 31  0  0  1  0  0  0  0  0999 V2000
   -5.0769   -0.7732    0.1811 C   0  0  0  0  0  0  0  0  0  0  0  0
   -6.6009   -0.5602    0.2383 C   0  0  0  0  0  0  0  0  0  0  0  0
   -6.9076    0.8437    0.7578 C   0  0  3  0  0  0  0  0  0  0  0  0
   -6.2305    1.9158   -0.1026 C   0  0  0  0  0  0  0  0  0  0  0  0
   -4.7330    1.6864   -0.2487 C   0  0  0  0  0  0  0  0  0  0  0  0
   -3.8790    2.7047   -0.0547 C   0  0  0  0  0  0  0  0  0  0  0  0
   -2.3786    2.5782   -0.1725 C   0  0  0  0  0  0  0  0  0  0  0  0
   -1.9153    1.2965   -0.8868 C   0  0  3  0  0  0  0  0  0  0  0  0
   -2.7449    0.0861   -0.3904 C   0  0  3  0  0  0  0  0  0  0  0  0
   -4.2858    0.2733   -0.6588 C   0  0  3  0  0  0  0  0  0  0  0  0
   -2.1658   -1.2707   -0.8812 C   0  0  0  0  0  0  0  0  0  0  0  0
   -0.6447   -1.4057   -0.6795 C   0  0  0  0  0  0  0  0  0  0  0  0
    0.1392   -0.2319   -1.3088 C   0  0  3  0  0  0  0  0  0  0  0  0
   -0.4147    1.0394   -0.6360 C   0  0  3  0  0  0  0  0  0  0  0  0
    0.5676    2.1367   -1.0400 C   0  0  0  0  0  0  0  0  0  0  0  0
    1.9162    1.4053   -1.0732 C   0  0  0  0  0  0  0  0  0  0  0  0
    1.6277   -0.1040   -0.8844 C   0  0  3  0  0  0  0  0  0  0  0  0
   -0.0043   -0.2505   -2.8549 C   0  0  0  0  0  0  0  0  0  0  0  0
   -4.6272    0.0901   -2.1578 C   0  0  0  0  0  0  0  0  0  0  0  0
    2.7170   -0.9910   -1.5562 C   0  0  3  0  0  0  0  0  0  0  0  0
    2.4273   -2.4984   -1.4526 C   0  0  0  0  0  0  0  0  0  0  0  0
    4.1535   -0.6752   -1.0580 C   0  0  0  0  0  0  0  0  0  0  0  0
    4.4438   -0.6415    0.4595 C   0  0  0  0  0  0  0  0  0  0  0  0
    4.4347   -2.0067    1.1783 C   0  0  0  0  0  0  0  0  0  0  0  0
    3.2746   -2.1921    2.1775 C   0  0  0  0  0  0  0  0  0  0  0  0
    3.2052   -3.6624    2.6105 C   0  0  0  0  0  0  0  0  0  0  0  0
    3.4511   -1.3184    3.4289 C   0  0  0  0  0  0  0  0  0  0  0  0
   -8.3081    1.0217    0.7515 O   0  0  0  0  0  0  0  0  0  0  0  0
  1  2  1  0  0  0  0
  1 10  1  0  0  0  0
  2  3  1  0  0  0  0
  3  4  1  0  0  0  0
  3 28  1  0  0  0  0
  4  5  1  0  0  0  0
  5  6  2  0  0  0  0
  5 10  1  0  0  0  0
  6  7  1  0  0  0  0
  7  8  1  0  0  0  0
  8  9  1  0  0  0  0
  8 14  1  0  0  0  0
  9 10  1  0  0  0  0
  9 11  1  0  0  0  0
 10 19  1  0  0  0  0
 11 12  1  0  0  0  0
 12 13  1  0  0  0  0
 13 14  1  0  0  0  0
 13 17  1  0  0  0  0
 13 18  1  0  0  0  0
 14 15  1  0  0  0  0
 15 16  1  0  0  0  0
 16 17  1  0  0  0  0
 17 20  1  0  0  0  0
 20 21  1  0  0  0  0
 20 22  1  0  0  0  0
 22 23  1  0  0  0  0
 23 24  1  0  0  0  0
 24 25  1  0  0  0  0
 25 26  1  0  0  0  0
 25 27  1  0  0  0  0
M  END
$$$$
CLR_2rh1_C_413
  PyMOL2.2          3D                             0

 28 31  0  0  1  0  0  0  0  0999 V2000
   -5.0935   -0.7454    0.1963 C   0  0  0  0  0  0  0  0  0  0  0  0
   -6.6134   -0.5114    0.2531 C   0  0  0  0  0  0  0  0  0  0  0  0
   -6.9014    0.8954    0.7734 C   0  0  3  0  0  0  0  0  0  0  0  0
   -6.2088    1.9596   -0.0855 C   0  0  0  0  0  0  0  0  0  0  0  0
   -4.7158    1.7092   -0.2322 C   0  0  0  0  0  0  0  0  0  0  0  0
   -3.8468    2.7153   -0.0364 C   0  0  0  0  0  0  0  0  0  0  0  0
   -2.3480    2.5682   -0.1538 C   0  0  0  0  0  0  0  0  0  0  0  0
   -1.9026    1.2813   -0.8712 C   0  0  3  0  0  0  0  0  0  0  0  0
   -2.7492    0.0826   -0.3748 C   0  0  3  0  0  0  0  0  0  0  0  0
   -4.2873    0.2913   -0.6426 C   0  0  3  0  0  0  0  0  0  0  0  0
   -2.1875   -1.2805   -0.8662 C   0  0  0  0  0  0  0  0  0  0  0  0
   -0.6650   -1.4336   -0.6736 C   0  0  0  0  0  0  0  0  0  0  0  0
    0.1332   -0.2706   -1.3078 C   0  0  3  0  0  0  0  0  0  0  0  0
   -0.4057    1.0027   -0.6247 C   0  0  3  0  0  0  0  0  0  0  0  0
    0.5835    2.0962   -1.0179 C   0  0  0  0  0  0  0  0  0  0  0  0
    1.9208    1.3504   -1.1015 C   0  0  0  0  0  0  0  0  0  0  0  0
    1.6299   -0.1559   -0.9017 C   0  0  3  0  0  0  0  0  0  0  0  0
   -0.0224   -0.2849   -2.8531 C   0  0  0  0  0  0  0  0  0  0  0  0
   -4.6314    0.1132   -2.1422 C   0  0  0  0  0  0  0  0  0  0  0  0
    2.7114   -1.0510   -1.5806 C   0  0  3  0  0  0  0  0  0  0  0  0
    2.3997   -2.5528   -1.4468 C   0  0  0  0  0  0  0  0  0  0  0  0
    4.1223   -0.8065   -0.9761 C   0  0  0  0  0  0  0  0  0  0  0  0
    5.0449    0.1519   -1.7595 C   0  0  0  0  0  0  0  0  0  0  0  0
    5.9132   -0.5254   -2.8394 C   0  0  0  0  0  0  0  0  0  0  0  0
    5.1767   -1.1104   -4.0605 C   0  0  0  0  0  0  0  0  0  0  0  0
    4.4774   -0.0249   -4.8942 C   0  0  0  0  0  0  0  0  0  0  0  0
    6.1866   -1.8379   -4.9570 C   0  0  0  0  0  0  0  0  0  0  0  0
   -8.2991    1.0935    0.7671 O   0  0  0  0  0  0  0  0  0  0  0  0
  1  2  1  0  0  0  0
  1 10  1  0  0  0  0
  2  3  1  0  0  0  0
  3  4  1  0  0  0  0
  3 28  1  0  0  0  0
  4  5  1  0  0  0  0
  5  6  2  0  0  0  0
  5 10  1  0  0  0  0
  6  7  1  0  0  0  0
  7  8  1  0  0  0  0
  8  9  1  0  0  0  0
  8 14  1  0  0  0  0
  9 10  1  0  0  0  0
  9 11  1  0  0  0  0
 10 19  1  0  0  0  0
 11 12  1  0  0  0  0
 12 13  1  0  0  0  0
 13 14  1  0  0  0  0
 13 17  1  0  0  0  0
 13 18  1  0  0  0  0
 14 15  1  0  0  0  0
 15 16  1  0  0  0  0
 16 17  1  0  0  0  0
 17 20  1  0  0  0  0
 20 21  1  0  0  0  0
 20 22  1  0  0  0  0
 22 23  1  0  0  0  0
 23 24  1  0  0  0  0
 24 25  1  0  0  0  0
 25 26  1  0  0  0  0
 25 27  1  0  0  0  0
M  END
$$$$
CLR_2rh1_C_413
  PyMOL2.2          3D                             0

 28 31  0  0  1  0  0  0  0  0999 V2000
   -5.0648   -0.7611    0.2017 C   0  0  0  0  0  0  0  0  0  0  0  0
   -6.5873   -0.5428    0.2747 C   0  0  0  0  0  0  0  0  0  0  0  0
   -6.8843    0.8595    0.8016 C   0  0  3  0  0  0  0  0  0  0  0  0
   -6.2115    1.9332   -0.0618 C   0  0  0  0  0  0  0  0  0  0  0  0
   -4.7168    1.6987   -0.2224 C   0  0  0  0  0  0  0  0  0  0  0  0
   -3.8569    2.7123   -0.0315 C   0  0  0  0  0  0  0  0  0  0  0  0
   -2.3576    2.5824   -0.1634 C   0  0  0  0  0  0  0  0  0  0  0  0
   -1.9073    1.3040   -0.8916 C   0  0  3  0  0  0  0  0  0  0  0  0
   -2.7346    0.0932   -0.3917 C   0  0  3  0  0  0  0  0  0  0  0  0
   -4.2779    0.2856   -0.6430 C   0  0  3  0  0  0  0  0  0  0  0  0
   -2.1644   -1.2638   -0.8916 C   0  0  0  0  0  0  0  0  0  0  0  0
   -0.6411   -1.4066   -0.7028 C   0  0  0  0  0  0  0  0  0  0  0  0
    0.1423   -0.2365   -1.3383 C   0  0  3  0  0  0  0  0  0  0  0  0
   -0.4043    1.0385   -0.6627 C   0  0  3  0  0  0  0  0  0  0  0  0
    0.5777    2.1332   -1.0804 C   0  0  0  0  0  0  0  0  0  0  0  0
    1.9311    1.4097   -1.0875 C   0  0  0  0  0  0  0  0  0  0  0  0
    1.6366   -0.1009   -0.9216 C   0  0  3  0  0  0  0  0  0  0  0  0
   -0.0368   -0.2613   -2.8778 C   0  0  0  0  0  0  0  0  0  0  0  0
   -4.6353    0.1092   -2.1389 C   0  0  0  0  0  0  0  0  0  0  0  0
    2.7825   -1.0146   -1.4587 C   0  0  3  0  0  0  0  0  0  0  0  0
    3.1047   -0.9469   -2.9668 C   0  0  0  0  0  0  0  0  0  0  0  0
    2.5624   -2.4867   -1.0407 C   0  0  0  0  0  0  0  0  0  0  0  0
    3.7530   -3.4477   -1.2271 C   0  0  0  0  0  0  0  0  0  0  0  0
    4.9950   -3.0540   -0.4036 C   0  0  0  0  0  0  0  0  0  0  0  0
    6.1658   -4.0583   -0.4328 C   0  0  0  0  0  0  0  0  0  0  0  0
    5.7997   -5.4077    0.2019 C   0  0  0  0  0  0  0  0  0  0  0  0
    6.7022   -4.2852   -1.8523 C   0  0  0  0  0  0  0  0  0  0  0  0
   -8.2839    1.0425    0.8098 O   0  0  0  0  0  0  0  0  0  0  0  0
  1  2  1  0  0  0  0
  1 10  1  0  0  0  0
  2  3  1  0  0  0  0
  3  4  1  0  0  0  0
  3 28  1  0  0  0  0
  4  5  1  0  0  0  0
  5  6  2  0  0  0  0
  5 10  1  0  0  0  0
  6  7  1  0  0  0  0
  7  8  1  0  0  0  0
  8  9  1  0  0  0  0
  8 14  1  0  0  0  0
  9 10  1  0  0  0  0
  9 11  1  0  0  0  0
 10 19  1  0  0  0  0
 11 12  1  0  0  0  0
 12 13  1  0  0  0  0
 13 14  1  0  0  0  0
 13 17  1  0  0  0  0
 13 18  1  0  0  0  0
 14 15  1  0  0  0  0
 15 16  1  0  0  0  0
 16 17  1  0  0  0  0
 17 20  1  0  0  0  0
 20 21  1  0  0  0  0
 20 22  1  0  0  0  0
 22 23  1  0  0  0  0
 23 24  1  0  0  0  0
 24 25  1  0  0  0  0
 25 26  1  0  0  0  0
 25 27  1  0  0  0  0
M  END
$$$$
CLR_2rh1_C_413
  PyMOL2.2          3D                             0

 28 31  0  0  1  0  0  0  0  0999 V2000
   -5.0815   -0.7710    0.1825 C   0  0  0  0  0  0  0  0  0  0  0  0
   -6.6056   -0.5552    0.2349 C   0  0  0  0  0  0  0  0  0  0  0  0
   -6.9115    0.8490    0.7502 C   0  0  3  0  0  0  0  0  0  0  0  0
   -6.2309    1.9188   -0.1104 C   0  0  0  0  0  0  0  0  0  0  0  0
   -4.7347    1.6877   -0.2519 C   0  0  0  0  0  0  0  0  0  0  0  0
   -3.8796    2.7051   -0.0568 C   0  0  0  0  0  0  0  0  0  0  0  0
   -2.3779    2.5774   -0.1702 C   0  0  0  0  0  0  0  0  0  0  0  0
   -1.9141    1.2945   -0.8833 C   0  0  3  0  0  0  0  0  0  0  0  0
   -2.7467    0.0855   -0.3867 C   0  0  3  0  0  0  0  0  0  0  0  0
   -4.2873    0.2731   -0.6583 C   0  0  3  0  0  0  0  0  0  0  0  0
   -2.1667   -1.2709   -0.8749 C   0  0  0  0  0  0  0  0  0  0  0  0
   -0.6452   -1.4049   -0.6684 C   0  0  0  0  0  0  0  0  0  0  0  0
    0.1435   -0.2355   -1.3030 C   0  0  3  0  0  0  0  0  0  0  0  0
   -0.4138    1.0366   -0.6331 C   0  0  3  0  0  0  0  0  0  0  0  0
    0.5614    2.1330   -1.0484 C   0  0  0  0  0  0  0  0  0  0  0  0
    1.9120    1.4069   -1.0503 C   0  0  0  0  0  0  0  0  0  0  0  0
    1.6379   -0.1105   -0.8874 C   0  0  3  0  0  0  0  0  0  0  0  0
   -0.0043   -0.2551   -2.8498 C   0  0  0  0  0  0  0  0  0  0  0  0
   -4.6255    0.0874   -2.1579 C   0  0  0  0  0  0  0  0  0  0  0  0
    2.7251   -0.9775   -1.5936 C   0  0  3  0  0  0  0  0  0  0  0  0
    2.4241   -2.4845   -1.4901 C   0  0  0  0  0  0  0  0  0  0  0  0
    4.1285   -0.7132   -0.9841 C   0  0  0  0  0  0  0  0  0  0  0  0
    5.3294   -1.1189   -1.8660 C   0  0  0  0  0  0  0  0  0  0  0  0
    5.5583   -0.2242   -3.1060 C   0  0  0  0  0  0  0  0  0  0  0  0
    6.5454    0.9558   -2.9652 C   0  0  0  0  0  0  0  0  0  0  0  0
    6.1633    1.9425   -1.8552 C   0  0  0  0  0  0  0  0  0  0  0  0
    7.9898    0.4805   -2.7523 C   0  0  0  0  0  0  0  0  0  0  0  0
   -8.3117    1.0291    0.7401 O   0  0  0  0  0  0  0  0  0  0  0  0
  1  2  1  0  0  0  0
  1 10  1  0  0  0  0
  2  3  1  0  0  0  0
  3  4  1  0  0  0  0
  3 28  1  0  0  0  0
  4  5  1  0  0  0  0
  5  6  2  0  0  0  0
  5 10  1  0  0  0  0
  6  7  1  0  0  0  0
  7  8  1  0  0  0  0
  8  9  1  0  0  0  0
  8 14  1  0  0  0  0
  9 10  1  0  0  0  0
  9 11  1  0  0  0  0
 10 19  1  0  0  0  0
 11 12  1  0  0  0  0
 12 13  1  0  0  0  0
 13 14  1  0  0  0  0
 13 17  1  0  0  0  0
 13 18  1  0  0  0  0
 14 15  1  0  0  0  0
 15 16  1  0  0  0  0
 16 17  1  0  0  0  0
 17 20  1  0  0  0  0
 20 21  1  0  0  0  0
 20 22  1  0  0  0  0
 22 23  1  0  0  0  0
 23 24  1  0  0  0  0
 24 25  1  0  0  0  0
 25 26  1  0  0  0  0
 25 27  1  0  0  0  0
M  END
$$$$
CLR_2rh1_C_413
  PyMOL2.2          3D                             0

 28 31  0  0  1  0  0  0  0  0999 V2000
   -5.0296   -0.7333    0.2668 C   0  0  0  0  0  0  0  0  0  0  0  0
   -6.5515   -0.5142    0.3536 C   0  0  0  0  0  0  0  0  0  0  0  0
   -6.8425    0.8899    0.8775 C   0  0  3  0  0  0  0  0  0  0  0  0
   -6.1795    1.9601    0.0024 C   0  0  0  0  0  0  0  0  0  0  0  0
   -4.6866    1.7250   -0.1742 C   0  0  0  0  0  0  0  0  0  0  0  0
   -3.8257    2.7415   -0.0003 C   0  0  0  0  0  0  0  0  0  0  0  0
   -2.3280    2.6122   -0.1482 C   0  0  0  0  0  0  0  0  0  0  0  0
   -1.8840    1.3276   -0.8701 C   0  0  3  0  0  0  0  0  0  0  0  0
   -2.7060    0.1180   -0.3532 C   0  0  3  0  0  0  0  0  0  0  0  0
   -4.2517    0.3099   -0.5902 C   0  0  3  0  0  0  0  0  0  0  0  0
   -2.1444   -1.2509   -0.8397 C   0  0  0  0  0  0  0  0  0  0  0  0
   -0.6149   -1.3892   -0.6945 C   0  0  0  0  0  0  0  0  0  0  0  0
    0.1379   -0.2068   -1.3414 C   0  0  3  0  0  0  0  0  0  0  0  0
   -0.3814    1.0662   -0.6501 C   0  0  3  0  0  0  0  0  0  0  0  0
    0.6184    2.1490   -1.0631 C   0  0  0  0  0  0  0  0  0  0  0  0
    1.9521    1.3930   -1.2033 C   0  0  0  0  0  0  0  0  0  0  0  0
    1.6347   -0.0995   -0.9541 C   0  0  3  0  0  0  0  0  0  0  0  0
   -0.0652   -0.2307   -2.8803 C   0  0  0  0  0  0  0  0  0  0  0  0
   -4.6235    0.1263   -2.0828 C   0  0  0  0  0  0  0  0  0  0  0  0
    2.6069   -1.1715   -1.5359 C   0  0  3  0  0  0  0  0  0  0  0  0
    3.6561   -1.5599   -0.4767 C   0  0  0  0  0  0  0  0  0  0  0  0
    3.2912   -0.8640   -2.8930 C   0  0  0  0  0  0  0  0  0  0  0  0
    4.5934   -0.0362   -2.8440 C   0  0  0  0  0  0  0  0  0  0  0  0
    5.0286    0.4810   -4.2280 C   0  0  0  0  0  0  0  0  0  0  0  0
    5.2750   -0.5979   -5.3037 C   0  0  0  0  0  0  0  0  0  0  0  0
    5.6739    0.0859   -6.6186 C   0  0  0  0  0  0  0  0  0  0  0  0
    6.3805   -1.5843   -4.9017 C   0  0  0  0  0  0  0  0  0  0  0  0
   -8.2421    1.0739    0.8989 O   0  0  0  0  0  0  0  0  0  0  0  0
  1  2  1  0  0  0  0
  1 10  1  0  0  0  0
  2  3  1  0  0  0  0
  3  4  1  0  0  0  0
  3 28  1  0  0  0  0
  4  5  1  0  0  0  0
  5  6  2  0  0  0  0
  5 10  1  0  0  0  0
  6  7  1  0  0  0  0
  7  8  1  0  0  0  0
  8  9  1  0  0  0  0
  8 14  1  0  0  0  0
  9 10  1  0  0  0  0
  9 11  1  0  0  0  0
 10 19  1  0  0  0  0
 11 12  1  0  0  0  0
 12 13  1  0  0  0  0
 13 14  1  0  0  0  0
 13 17  1  0  0  0  0
 13 18  1  0  0  0  0
 14 15  1  0  0  0  0
 15 16  1  0  0  0  0
 16 17  1  0  0  0  0
 17 20  1  0  0  0  0
 20 21  1  0  0  0  0
 20 22  1  0  0  0  0
 22 23  1  0  0  0  0
 23 24  1  0  0  0  0
 24 25  1  0  0  0  0
 25 26  1  0  0  0  0
 25 27  1  0  0  0  0
M  END
$$$$
CLR_2rh1_C_413
  PyMOL2.2          3D                             0

 28 31  0  0  1  0  0  0  0  0999 V2000
   -5.0296   -0.7313    0.2736 C   0  0  0  0  0  0  0  0  0  0  0  0
   -6.5514   -0.5147    0.3616 C   0  0  0  0  0  0  0  0  0  0  0  0
   -6.8438    0.8929    0.8806 C   0  0  3  0  0  0  0  0  0  0  0  0
   -6.1787    1.9605    0.0062 C   0  0  0  0  0  0  0  0  0  0  0  0
   -4.6856    1.7231   -0.1731 C   0  0  0  0  0  0  0  0  0  0  0  0
   -3.8244    2.7394   -0.0011 C   0  0  0  0  0  0  0  0  0  0  0  0
   -2.3268    2.6093   -0.1526 C   0  0  0  0  0  0  0  0  0  0  0  0
   -1.8863    1.3255   -0.8772 C   0  0  3  0  0  0  0  0  0  0  0  0
   -2.7066    0.1151   -0.3567 C   0  0  3  0  0  0  0  0  0  0  0  0
   -4.2531    0.3083   -0.5886 C   0  0  3  0  0  0  0  0  0  0  0  0
   -2.1477   -1.2548   -0.8425 C   0  0  0  0  0  0  0  0  0  0  0  0
   -0.6175   -1.3949   -0.7068 C   0  0  0  0  0  0  0  0  0  0  0  0
    0.1326   -0.2112   -1.3529 C   0  0  3  0  0  0  0  0  0  0  0  0
   -0.3822    1.0632   -0.6608 C   0  0  3  0  0  0  0  0  0  0  0  0
    0.6214    2.1422   -1.0825 C   0  0  0  0  0  0  0  0  0  0  0  0
    1.9633    1.3907   -1.1553 C   0  0  0  0  0  0  0  0  0  0  0  0
    1.6279   -0.1051   -0.9557 C   0  0  3  0  0  0  0  0  0  0  0  0
   -0.0870   -0.2289   -2.8879 C   0  0  0  0  0  0  0  0  0  0  0  0
   -4.6304    0.1226   -2.0795 C   0  0  0  0  0  0  0  0  0  0  0  0
    2.6403   -1.1416   -1.5265 C   0  0  3  0  0  0  0  0  0  0  0  0
    3.8604   -1.1868   -0.5827 C   0  0  0  0  0  0  0  0  0  0  0  0
    3.1478   -0.9070   -2.9748 C   0  0  0  0  0  0  0  0  0  0  0  0
    3.2011   -2.1712   -3.8534 C   0  0  0  0  0  0  0  0  0  0  0  0
    4.1949   -3.2399   -3.3660 C   0  0  0  0  0  0  0  0  0  0  0  0
    4.2482   -4.4884   -4.2680 C   0  0  0  0  0  0  0  0  0  0  0  0
    4.8069   -4.1884   -5.6665 C   0  0  0  0  0  0  0  0  0  0  0  0
    5.1351   -5.5500   -3.6030 C   0  0  0  0  0  0  0  0  0  0  0  0
   -8.2412    1.0863    0.8956 O   0  0  0  0  0  0  0  0  0  0  0  0
  1  2  1  0  0  0  0
  1 10  1  0  0  0  0
  2  3  1  0  0  0  0
  3  4  1  0  0  0  0
  3 28  1  0  0  0  0
  4  5  1  0  0  0  0
  5  6  2  0  0  0  0
  5 10  1  0  0  0  0
  6  7  1  0  0  0  0
  7  8  1  0  0  0  0
  8  9  1  0  0  0  0
  8 14  1  0  0  0  0
  9 10  1  0  0  0  0
  9 11  1  0  0  0  0
 10 19  1  0  0  0  0
 11 12  1  0  0  0  0
 12 13  1  0  0  0  0
 13 14  1  0  0  0  0
 13 17  1  0  0  0  0
 13 18  1  0  0  0  0
 14 15  1  0  0  0  0
 15 16  1  0  0  0  0
 16 17  1  0  0  0  0
 17 20  1  0  0  0  0
 20 21  1  0  0  0  0
 20 22  1  0  0  0  0
 22 23  1  0  0  0  0
 23 24  1  0  0  0  0
 24 25  1  0  0  0  0
 25 26  1  0  0  0  0
 25 27  1  0  0  0  0
M  END
$$$$
CLR_2rh1_C_413
  PyMOL2.2          3D                             0

 28 31  0  0  1  0  0  0  0  0999 V2000
   -5.0646   -0.7567    0.2109 C   0  0  0  0  0  0  0  0  0  0  0  0
   -6.5878   -0.5422    0.2693 C   0  0  0  0  0  0  0  0  0  0  0  0
   -6.8936    0.8660    0.7790 C   0  0  3  0  0  0  0  0  0  0  0  0
   -6.2128    1.9330   -0.0844 C   0  0  0  0  0  0  0  0  0  0  0  0
   -4.7162    1.6972   -0.2333 C   0  0  0  0  0  0  0  0  0  0  0  0
   -3.8583    2.7140   -0.0439 C   0  0  0  0  0  0  0  0  0  0  0  0
   -2.3586    2.5838   -0.1651 C   0  0  0  0  0  0  0  0  0  0  0  0
   -1.9018    1.3009   -0.8813 C   0  0  3  0  0  0  0  0  0  0  0  0
   -2.7319    0.0929   -0.3793 C   0  0  3  0  0  0  0  0  0  0  0  0
   -4.2740    0.2823   -0.6399 C   0  0  3  0  0  0  0  0  0  0  0  0
   -2.1588   -1.2659   -0.8709 C   0  0  0  0  0  0  0  0  0  0  0  0
   -0.6356   -1.4042   -0.6772 C   0  0  0  0  0  0  0  0  0  0  0  0
    0.1470   -0.2336   -1.3148 C   0  0  3  0  0  0  0  0  0  0  0  0
   -0.4006    1.0391   -0.6395 C   0  0  3  0  0  0  0  0  0  0  0  0
    0.5801    2.1338   -1.0538 C   0  0  0  0  0  0  0  0  0  0  0  0
    1.9275    1.4000   -1.0906 C   0  0  0  0  0  0  0  0  0  0  0  0
    1.6392   -0.1101   -0.8992 C   0  0  3  0  0  0  0  0  0  0  0  0
   -0.0079   -0.2520   -2.8596 C   0  0  0  0  0  0  0  0  0  0  0  0
   -4.6235    0.0927   -2.1359 C   0  0  0  0  0  0  0  0  0  0  0  0
    2.7215   -0.9996   -1.5784 C   0  0  3  0  0  0  0  0  0  0  0  0
    2.4236   -2.5075   -1.5086 C   0  0  0  0  0  0  0  0  0  0  0  0
    4.1677   -0.7427   -1.0725 C   0  0  0  0  0  0  0  0  0  0  0  0
    4.6106   -1.3163    0.2952 C   0  0  0  0  0  0  0  0  0  0  0  0
    4.0491   -0.6018    1.5419 C   0  0  0  0  0  0  0  0  0  0  0  0
    3.0364   -1.4387    2.3497 C   0  0  0  0  0  0  0  0  0  0  0  0
    3.7266   -2.5689    3.1263 C   0  0  0  0  0  0  0  0  0  0  0  0
    2.2983   -0.5318    3.3438 C   0  0  0  0  0  0  0  0  0  0  0  0
   -8.2918    1.0563    0.7650 O   0  0  0  0  0  0  0  0  0  0  0  0
  1  2  1  0  0  0  0
  1 10  1  0  0  0  0
  2  3  1  0  0  0  0
  3  4  1  0  0  0  0
  3 28  1  0  0  0  0
  4  5  1  0  0  0  0
  5  6  2  0  0  0  0
  5 10  1  0  0  0  0
  6  7  1  0  0  0  0
  7  8  1  0  0  0  0
  8  9  1  0  0  0  0
  8 14  1  0  0  0  0
  9 10  1  0  0  0  0
  9 11  1  0  0  0  0
 10 19  1  0  0  0  0
 11 12  1  0  0  0  0
 12 13  1  0  0  0  0
 13 14  1  0  0  0  0
 13 17  1  0  0  0  0
 13 18  1  0  0  0  0
 14 15  1  0  0  0  0
 15 16  1  0  0  0  0
 16 17  1  0  0  0  0
 17 20  1  0  0  0  0
 20 21  1  0  0  0  0
 20 22  1  0  0  0  0
 22 23  1  0  0  0  0
 23 24  1  0  0  0  0
 24 25  1  0  0  0  0
 25 26  1  0  0  0  0
 25 27  1  0  0  0  0
M  END
$$$$
CLR_2rh1_C_413
  PyMOL2.2          3D                             0

 28 31  0  0  1  0  0  0  0  0999 V2000
   -5.0301   -0.7327    0.2665 C   0  0  0  0  0  0  0  0  0  0  0  0
   -6.5524   -0.5139    0.3523 C   0  0  0  0  0  0  0  0  0  0  0  0
   -6.8433    0.8905    0.8760 C   0  0  3  0  0  0  0  0  0  0  0  0
   -6.1794    1.9596    0.0013 C   0  0  0  0  0  0  0  0  0  0  0  0
   -4.6861    1.7249   -0.1747 C   0  0  0  0  0  0  0  0  0  0  0  0
   -3.8253    2.7415    0.0012 C   0  0  0  0  0  0  0  0  0  0  0  0
   -2.3273    2.6111   -0.1447 C   0  0  0  0  0  0  0  0  0  0  0  0
   -1.8833    1.3279   -0.8687 C   0  0  3  0  0  0  0  0  0  0  0  0
   -2.7056    0.1176   -0.3518 C   0  0  3  0  0  0  0  0  0  0  0  0
   -4.2514    0.3099   -0.5903 C   0  0  3  0  0  0  0  0  0  0  0  0
   -2.1439   -1.2509   -0.8375 C   0  0  0  0  0  0  0  0  0  0  0  0
   -0.6140   -1.3882   -0.6934 C   0  0  0  0  0  0  0  0  0  0  0  0
    0.1375   -0.2067   -1.3413 C   0  0  3  0  0  0  0  0  0  0  0  0
   -0.3806    1.0652   -0.6489 C   0  0  3  0  0  0  0  0  0  0  0  0
    0.6182    2.1494   -1.0627 C   0  0  0  0  0  0  0  0  0  0  0  0
    1.9507    1.3934   -1.2074 C   0  0  0  0  0  0  0  0  0  0  0  0
    1.6354   -0.0990   -0.9557 C   0  0  3  0  0  0  0  0  0  0  0  0
   -0.0672   -0.2310   -2.8802 C   0  0  0  0  0  0  0  0  0  0  0  0
   -4.6229    0.1257   -2.0820 C   0  0  0  0  0  0  0  0  0  0  0  0
    2.6065   -1.1719   -1.5370 C   0  0  3  0  0  0  0  0  0  0  0  0
    3.6551   -1.5582   -0.4760 C   0  0  0  0  0  0  0  0  0  0  0  0
    3.2907   -0.8645   -2.8945 C   0  0  0  0  0  0  0  0  0  0  0  0
    4.5921   -0.0368   -2.8468 C   0  0  0  0  0  0  0  0  0  0  0  0
    5.0216    0.3711   -4.2680 C   0  0  0  0  0  0  0  0  0  0  0  0
    6.3138    1.2087   -4.3632 C   0  0  0  0  0  0  0  0  0  0  0  0
    6.1878    2.5589   -3.6440 C   0  0  0  0  0  0  0  0  0  0  0  0
    7.5398    0.4553   -3.8303 C   0  0  0  0  0  0  0  0  0  0  0  0
   -8.2423    1.0740    0.8970 O   0  0  0  0  0  0  0  0  0  0  0  0
  1  2  1  0  0  0  0
  1 10  1  0  0  0  0
  2  3  1  0  0  0  0
  3  4  1  0  0  0  0
  3 28  1  0  0  0  0
  4  5  1  0  0  0  0
  5  6  2  0  0  0  0
  5 10  1  0  0  0  0
  6  7  1  0  0  0  0
  7  8  1  0  0  0  0
  8  9  1  0  0  0  0
  8 14  1  0  0  0  0
  9 10  1  0  0  0  0
  9 11  1  0  0  0  0
 10 19  1  0  0  0  0
 11 12  1  0  0  0  0
 12 13  1  0  0  0  0
 13 14  1  0  0  0  0
 13 17  1  0  0  0  0
 13 18  1  0  0  0  0
 14 15  1  0  0  0  0
 15 16  1  0  0  0  0
 16 17  1  0  0  0  0
 17 20  1  0  0  0  0
 20 21  1  0  0  0  0
 20 22  1  0  0  0  0
 22 23  1  0  0  0  0
 23 24  1  0  0  0  0
 24 25  1  0  0  0  0
 25 26  1  0  0  0  0
 25 27  1  0  0  0  0
M  END
$$$$
CLR_2rh1_C_413
  PyMOL2.2          3D                             0

 28 31  0  0  1  0  0  0  0  0999 V2000
   -5.0483   -0.7683    0.1983 C   0  0  0  0  0  0  0  0  0  0  0  0
   -6.5733   -0.5606    0.2625 C   0  0  0  0  0  0  0  0  0  0  0  0
   -6.8814    0.8401    0.7859 C   0  0  3  0  0  0  0  0  0  0  0  0
   -6.2123    1.9171   -0.0757 C   0  0  0  0  0  0  0  0  0  0  0  0
   -4.7155    1.6936   -0.2298 C   0  0  0  0  0  0  0  0  0  0  0  0
   -3.8647    2.7146   -0.0378 C   0  0  0  0  0  0  0  0  0  0  0  0
   -2.3634    2.5951   -0.1639 C   0  0  0  0  0  0  0  0  0  0  0  0
   -1.9009    1.3179   -0.8844 C   0  0  3  0  0  0  0  0  0  0  0  0
   -2.7211    0.1004   -0.3841 C   0  0  3  0  0  0  0  0  0  0  0  0
   -4.2649    0.2822   -0.6436 C   0  0  3  0  0  0  0  0  0  0  0  0
   -2.1430   -1.2640   -0.8641 C   0  0  0  0  0  0  0  0  0  0  0  0
   -0.6148   -1.3919   -0.6979 C   0  0  0  0  0  0  0  0  0  0  0  0
    0.1370   -0.2035   -1.3299 C   0  0  3  0  0  0  0  0  0  0  0  0
   -0.3987    1.0652   -0.6444 C   0  0  3  0  0  0  0  0  0  0  0  0
    0.6010    2.1544   -1.0449 C   0  0  0  0  0  0  0  0  0  0  0  0
    1.9467    1.4112   -1.1295 C   0  0  0  0  0  0  0  0  0  0  0  0
    1.6256   -0.0865   -0.9145 C   0  0  3  0  0  0  0  0  0  0  0  0
   -0.0503   -0.2241   -2.8703 C   0  0  0  0  0  0  0  0  0  0  0  0
   -4.6125    0.1009   -2.1416 C   0  0  0  0  0  0  0  0  0  0  0  0
    2.6440   -1.1222   -1.4783 C   0  0  3  0  0  0  0  0  0  0  0  0
    3.7730   -1.3188   -0.4467 C   0  0  0  0  0  0  0  0  0  0  0  0
    3.2750   -0.7754   -2.8496 C   0  0  0  0  0  0  0  0  0  0  0  0
    3.9963   -1.9582   -3.5164 C   0  0  0  0  0  0  0  0  0  0  0  0
    4.3722   -1.7248   -4.9917 C   0  0  0  0  0  0  0  0  0  0  0  0
    5.3779   -0.5796   -5.2422 C   0  0  0  0  0  0  0  0  0  0  0  0
    6.2794   -0.9274   -6.4353 C   0  0  0  0  0  0  0  0  0  0  0  0
    4.6792    0.7528   -5.5613 C   0  0  0  0  0  0  0  0  0  0  0  0
   -8.2831    1.0136    0.7869 O   0  0  0  0  0  0  0  0  0  0  0  0
  1  2  1  0  0  0  0
  1 10  1  0  0  0  0
  2  3  1  0  0  0  0
  3  4  1  0  0  0  0
  3 28  1  0  0  0  0
  4  5  1  0  0  0  0
  5  6  2  0  0  0  0
  5 10  1  0  0  0  0
  6  7  1  0  0  0  0
  7  8  1  0  0  0  0
  8  9  1  0  0  0  0
  8 14  1  0  0  0  0
  9 10  1  0  0  0  0
  9 11  1  0  0  0  0
 10 19  1  0  0  0  0
 11 12  1  0  0  0  0
 12 13  1  0  0  0  0
 13 14  1  0  0  0  0
 13 17  1  0  0  0  0
 13 18  1  0  0  0  0
 14 15  1  0  0  0  0
 15 16  1  0  0  0  0
 16 17  1  0  0  0  0
 17 20  1  0  0  0  0
 20 21  1  0  0  0  0
 20 22  1  0  0  0  0
 22 23  1  0  0  0  0
 23 24  1  0  0  0  0
 24 25  1  0  0  0  0
 25 26  1  0  0  0  0
 25 27  1  0  0  0  0
M  END
$$$$
CLR_2rh1_C_413
  PyMOL2.2          3D                             0

 28 31  0  0  1  0  0  0  0  0999 V2000
   -5.0266   -0.7332    0.2688 C   0  0  0  0  0  0  0  0  0  0  0  0
   -6.5489   -0.5163    0.3562 C   0  0  0  0  0  0  0  0  0  0  0  0
   -6.8413    0.8892    0.8790 C   0  0  3  0  0  0  0  0  0  0  0  0
   -6.1801    1.9579    0.0022 C   0  0  0  0  0  0  0  0  0  0  0  0
   -4.6872    1.7239   -0.1754 C   0  0  0  0  0  0  0  0  0  0  0  0
   -3.8262    2.7421   -0.0035 C   0  0  0  0  0  0  0  0  0  0  0  0
   -2.3288    2.6132   -0.1528 C   0  0  0  0  0  0  0  0  0  0  0  0
   -1.8838    1.3293   -0.8737 C   0  0  3  0  0  0  0  0  0  0  0  0
   -2.7047    0.1185   -0.3547 C   0  0  3  0  0  0  0  0  0  0  0  0
   -4.2508    0.3087   -0.5907 C   0  0  3  0  0  0  0  0  0  0  0  0
   -2.1432   -1.2517   -0.8374 C   0  0  0  0  0  0  0  0  0  0  0  0
   -0.6117   -1.3888   -0.7030 C   0  0  0  0  0  0  0  0  0  0  0  0
    0.1347   -0.2031   -1.3472 C   0  0  3  0  0  0  0  0  0  0  0  0
   -0.3811    1.0690   -0.6529 C   0  0  3  0  0  0  0  0  0  0  0  0
    0.6232    2.1511   -1.0645 C   0  0  0  0  0  0  0  0  0  0  0  0
    1.9588    1.3956   -1.1923 C   0  0  0  0  0  0  0  0  0  0  0  0
    1.6313   -0.0972   -0.9603 C   0  0  3  0  0  0  0  0  0  0  0  0
   -0.0761   -0.2117   -2.8852 C   0  0  0  0  0  0  0  0  0  0  0  0
   -4.6245    0.1229   -2.0812 C   0  0  0  0  0  0  0  0  0  0  0  0
    2.6008   -1.1946   -1.5154 C   0  0  3  0  0  0  0  0  0  0  0  0
    3.3046   -1.8790   -0.3265 C   0  0  0  0  0  0  0  0  0  0  0  0
    3.7151   -0.7592   -2.4986 C   0  0  0  0  0  0  0  0  0  0  0  0
    3.2293   -0.5189   -3.9378 C   0  0  0  0  0  0  0  0  0  0  0  0
    4.4090   -0.1590   -4.8554 C   0  0  0  0  0  0  0  0  0  0  0  0
    4.0070   -0.0120   -6.3358 C   0  0  0  0  0  0  0  0  0  0  0  0
    3.0361    1.1552   -6.5722 C   0  0  0  0  0  0  0  0  0  0  0  0
    5.2675    0.2175   -7.1794 C   0  0  0  0  0  0  0  0  0  0  0  0
   -8.2405    1.0717    0.9019 O   0  0  0  0  0  0  0  0  0  0  0  0
  1  2  1  0  0  0  0
  1 10  1  0  0  0  0
  2  3  1  0  0  0  0
  3  4  1  0  0  0  0
  3 28  1  0  0  0  0
  4  5  1  0  0  0  0
  5  6  2  0  0  0  0
  5 10  1  0  0  0  0
  6  7  1  0  0  0  0
  7  8  1  0  0  0  0
  8  9  1  0  0  0  0
  8 14  1  0  0  0  0
  9 10  1  0  0  0  0
  9 11  1  0  0  0  0
 10 19  1  0  0  0  0
 11 12  1  0  0  0  0
 12 13  1  0  0  0  0
 13 14  1  0  0  0  0
 13 17  1  0  0  0  0
 13 18  1  0  0  0  0
 14 15  1  0  0  0  0
 15 16  1  0  0  0  0
 16 17  1  0  0  0  0
 17 20  1  0  0  0  0
 20 21  1  0  0  0  0
 20 22  1  0  0  0  0
 22 23  1  0  0  0  0
 23 24  1  0  0  0  0
 24 25  1  0  0  0  0
 25 26  1  0  0  0  0
 25 27  1  0  0  0  0
M  END
$$$$
CLR_2rh1_C_413
  PyMOL2.2          3D                             0

 28 31  0  0  1  0  0  0  0  0999 V2000
   -5.0277   -0.7336    0.2675 C   0  0  0  0  0  0  0  0  0  0  0  0
   -6.5493   -0.5155    0.3548 C   0  0  0  0  0  0  0  0  0  0  0  0
   -6.8419    0.8888    0.8774 C   0  0  3  0  0  0  0  0  0  0  0  0
   -6.1795    1.9580    0.0010 C   0  0  0  0  0  0  0  0  0  0  0  0
   -4.6858    1.7247   -0.1750 C   0  0  0  0  0  0  0  0  0  0  0  0
   -3.8267    2.7417   -0.0016 C   0  0  0  0  0  0  0  0  0  0  0  0
   -2.3284    2.6131   -0.1496 C   0  0  0  0  0  0  0  0  0  0  0  0
   -1.8842    1.3293   -0.8720 C   0  0  3  0  0  0  0  0  0  0  0  0
   -2.7047    0.1190   -0.3528 C   0  0  3  0  0  0  0  0  0  0  0  0
   -4.2510    0.3093   -0.5899 C   0  0  3  0  0  0  0  0  0  0  0  0
   -2.1424   -1.2523   -0.8340 C   0  0  0  0  0  0  0  0  0  0  0  0
   -0.6114   -1.3890   -0.7000 C   0  0  0  0  0  0  0  0  0  0  0  0
    0.1344   -0.2036   -1.3462 C   0  0  3  0  0  0  0  0  0  0  0  0
   -0.3803    1.0698   -0.6523 C   0  0  3  0  0  0  0  0  0  0  0  0
    0.6222    2.1507   -1.0668 C   0  0  0  0  0  0  0  0  0  0  0  0
    1.9594    1.3956   -1.1930 C   0  0  0  0  0  0  0  0  0  0  0  0
    1.6314   -0.0977   -0.9631 C   0  0  3  0  0  0  0  0  0  0  0  0
   -0.0792   -0.2153   -2.8835 C   0  0  0  0  0  0  0  0  0  0  0  0
   -4.6220    0.1241   -2.0821 C   0  0  0  0  0  0  0  0  0  0  0  0
    2.6019   -1.1918   -1.5206 C   0  0  3  0  0  0  0  0  0  0  0  0
    3.3311   -1.8538   -0.3338 C   0  0  0  0  0  0  0  0  0  0  0  0
    3.6974   -0.7616   -2.5268 C   0  0  0  0  0  0  0  0  0  0  0  0
    3.1914   -0.5212   -3.9582 C   0  0  0  0  0  0  0  0  0  0  0  0
    4.3653   -0.2261   -4.9051 C   0  0  0  0  0  0  0  0  0  0  0  0
    3.9181    0.1666   -6.3267 C   0  0  0  0  0  0  0  0  0  0  0  0
    5.1495    0.5567   -7.1535 C   0  0  0  0  0  0  0  0  0  0  0  0
    3.1781   -0.9712   -7.0469 C   0  0  0  0  0  0  0  0  0  0  0  0
   -8.2415    1.0712    0.8994 O   0  0  0  0  0  0  0  0  0  0  0  0
  1  2  1  0  0  0  0
  1 10  1  0  0  0  0
  2  3  1  0  0  0  0
  3  4  1  0  0  0  0
  3 28  1  0  0  0  0
  4  5  1  0  0  0  0
  5  6  2  0  0  0  0
  5 10  1  0  0  0  0
  6  7  1  0  0  0  0
  7  8  1  0  0  0  0
  8  9  1  0  0  0  0
  8 14  1  0  0  0  0
  9 10  1  0  0  0  0
  9 11  1  0  0  0  0
 10 19  1  0  0  0  0
 11 12  1  0  0  0  0
 12 13  1  0  0  0  0
 13 14  1  0  0  0  0
 13 17  1  0  0  0  0
 13 18  1  0  0  0  0
 14 15  1  0  0  0  0
 15 16  1  0  0  0  0
 16 17  1  0  0  0  0
 17 20  1  0  0  0  0
 20 21  1  0  0  0  0
 20 22  1  0  0  0  0
 22 23  1  0  0  0  0
 23 24  1  0  0  0  0
 24 25  1  0  0  0  0
 25 26  1  0  0  0  0
 25 27  1  0  0  0  0
M  END
$$$$
CLR_2rh1_C_413
  PyMOL2.2          3D                             0

 28 31  0  0  1  0  0  0  0  0999 V2000
   -5.0918   -0.7461    0.1991 C   0  0  0  0  0  0  0  0  0  0  0  0
   -6.6131   -0.5142    0.2557 C   0  0  0  0  0  0  0  0  0  0  0  0
   -6.9021    0.8922    0.7745 C   0  0  3  0  0  0  0  0  0  0  0  0
   -6.2130    1.9559   -0.0862 C   0  0  0  0  0  0  0  0  0  0  0  0
   -4.7191    1.7088   -0.2334 C   0  0  0  0  0  0  0  0  0  0  0  0
   -3.8525    2.7161   -0.0383 C   0  0  0  0  0  0  0  0  0  0  0  0
   -2.3534    2.5713   -0.1577 C   0  0  0  0  0  0  0  0  0  0  0  0
   -1.9057    1.2848   -0.8733 C   0  0  3  0  0  0  0  0  0  0  0  0
   -2.7501    0.0857   -0.3752 C   0  0  3  0  0  0  0  0  0  0  0  0
   -4.2888    0.2901   -0.6423 C   0  0  3  0  0  0  0  0  0  0  0  0
   -2.1858   -1.2760   -0.8666 C   0  0  0  0  0  0  0  0  0  0  0  0
   -0.6642   -1.4262   -0.6670 C   0  0  0  0  0  0  0  0  0  0  0  0
    0.1365   -0.2660   -1.3062 C   0  0  3  0  0  0  0  0  0  0  0  0
   -0.4073    1.0083   -0.6276 C   0  0  3  0  0  0  0  0  0  0  0  0
    0.5765    2.1007   -1.0365 C   0  0  0  0  0  0  0  0  0  0  0  0
    1.9180    1.3592   -1.0716 C   0  0  0  0  0  0  0  0  0  0  0  0
    1.6358   -0.1519   -0.8999 C   0  0  3  0  0  0  0  0  0  0  0  0
   -0.0176   -0.2812   -2.8507 C   0  0  0  0  0  0  0  0  0  0  0  0
   -4.6327    0.1105   -2.1410 C   0  0  0  0  0  0  0  0  0  0  0  0
    2.7170   -1.0437   -1.5903 C   0  0  3  0  0  0  0  0  0  0  0  0
    2.3823   -2.5434   -1.4775 C   0  0  0  0  0  0  0  0  0  0  0  0
    4.1357   -0.8527   -0.9846 C   0  0  0  0  0  0  0  0  0  0  0  0
    4.9681    0.2838   -1.6147 C   0  0  0  0  0  0  0  0  0  0  0  0
    6.4498    0.2358   -1.1932 C   0  0  0  0  0  0  0  0  0  0  0  0
    7.3946   -0.4150   -2.2250 C   0  0  0  0  0  0  0  0  0  0  0  0
    8.8388   -0.3157   -1.7160 C   0  0  0  0  0  0  0  0  0  0  0  0
    7.0722   -1.8882   -2.5068 C   0  0  0  0  0  0  0  0  0  0  0  0
   -8.3010    1.0871    0.7684 O   0  0  0  0  0  0  0  0  0  0  0  0
  1  2  1  0  0  0  0
  1 10  1  0  0  0  0
  2  3  1  0  0  0  0
  3  4  1  0  0  0  0
  3 28  1  0  0  0  0
  4  5  1  0  0  0  0
  5  6  2  0  0  0  0
  5 10  1  0  0  0  0
  6  7  1  0  0  0  0
  7  8  1  0  0  0  0
  8  9  1  0  0  0  0
  8 14  1  0  0  0  0
  9 10  1  0  0  0  0
  9 11  1  0  0  0  0
 10 19  1  0  0  0  0
 11 12  1  0  0  0  0
 12 13  1  0  0  0  0
 13 14  1  0  0  0  0
 13 17  1  0  0  0  0
 13 18  1  0  0  0  0
 14 15  1  0  0  0  0
 15 16  1  0  0  0  0
 16 17  1  0  0  0  0
 17 20  1  0  0  0  0
 20 21  1  0  0  0  0
 20 22  1  0  0  0  0
 22 23  1  0  0  0  0
 23 24  1  0  0  0  0
 24 25  1  0  0  0  0
 25 26  1  0  0  0  0
 25 27  1  0  0  0  0
M  END
$$$$
CLR_2rh1_C_413
  PyMOL2.2          3D                             0

 28 31  0  0  1  0  0  0  0  0999 V2000
   -5.0655   -0.7586    0.2039 C   0  0  0  0  0  0  0  0  0  0  0  0
   -6.5887   -0.5410    0.2660 C   0  0  0  0  0  0  0  0  0  0  0  0
   -6.8887    0.8636    0.7838 C   0  0  3  0  0  0  0  0  0  0  0  0
   -6.2129    1.9328   -0.0819 C   0  0  0  0  0  0  0  0  0  0  0  0
   -4.7160    1.6986   -0.2327 C   0  0  0  0  0  0  0  0  0  0  0  0
   -3.8584    2.7143   -0.0433 C   0  0  0  0  0  0  0  0  0  0  0  0
   -2.3587    2.5841   -0.1658 C   0  0  0  0  0  0  0  0  0  0  0  0
   -1.9019    1.2994   -0.8812 C   0  0  3  0  0  0  0  0  0  0  0  0
   -2.7333    0.0921   -0.3792 C   0  0  3  0  0  0  0  0  0  0  0  0
   -4.2744    0.2834   -0.6408 C   0  0  3  0  0  0  0  0  0  0  0  0
   -2.1592   -1.2671   -0.8692 C   0  0  0  0  0  0  0  0  0  0  0  0
   -0.6366   -1.4051   -0.6749 C   0  0  0  0  0  0  0  0  0  0  0  0
    0.1476   -0.2350   -1.3107 C   0  0  3  0  0  0  0  0  0  0  0  0
   -0.4003    1.0387   -0.6386 C   0  0  3  0  0  0  0  0  0  0  0  0
    0.5787    2.1346   -1.0547 C   0  0  0  0  0  0  0  0  0  0  0  0
    1.9245    1.4005   -1.1013 C   0  0  0  0  0  0  0  0  0  0  0  0
    1.6414   -0.1095   -0.8939 C   0  0  3  0  0  0  0  0  0  0  0  0
   -0.0076   -0.2559   -2.8563 C   0  0  0  0  0  0  0  0  0  0  0  0
   -4.6219    0.0979   -2.1386 C   0  0  0  0  0  0  0  0  0  0  0  0
    2.7211   -0.9964   -1.5787 C   0  0  3  0  0  0  0  0  0  0  0  0
    2.4191   -2.5030   -1.4830 C   0  0  0  0  0  0  0  0  0  0  0  0
    4.1673   -0.7258   -1.0827 C   0  0  0  0  0  0  0  0  0  0  0  0
    4.5578   -1.1692    0.3491 C   0  0  0  0  0  0  0  0  0  0  0  0
    4.3162   -0.1515    1.4809 C   0  0  0  0  0  0  0  0  0  0  0  0
    5.5148    0.7618    1.8098 C   0  0  0  0  0  0  0  0  0  0  0  0
    5.9472    1.6556    0.6401 C   0  0  0  0  0  0  0  0  0  0  0  0
    5.1479    1.6575    3.0012 C   0  0  0  0  0  0  0  0  0  0  0  0
   -8.2894    1.0461    0.7828 O   0  0  0  0  0  0  0  0  0  0  0  0
  1  2  1  0  0  0  0
  1 10  1  0  0  0  0
  2  3  1  0  0  0  0
  3  4  1  0  0  0  0
  3 28  1  0  0  0  0
  4  5  1  0  0  0  0
  5  6  2  0  0  0  0
  5 10  1  0  0  0  0
  6  7  1  0  0  0  0
  7  8  1  0  0  0  0
  8  9  1  0  0  0  0
  8 14  1  0  0  0  0
  9 10  1  0  0  0  0
  9 11  1  0  0  0  0
 10 19  1  0  0  0  0
 11 12  1  0  0  0  0
 12 13  1  0  0  0  0
 13 14  1  0  0  0  0
 13 17  1  0  0  0  0
 13 18  1  0  0  0  0
 14 15  1  0  0  0  0
 15 16  1  0  0  0  0
 16 17  1  0  0  0  0
 17 20  1  0  0  0  0
 20 21  1  0  0  0  0
 20 22  1  0  0  0  0
 22 23  1  0  0  0  0
 23 24  1  0  0  0  0
 24 25  1  0  0  0  0
 25 26  1  0  0  0  0
 25 27  1  0  0  0  0
M  END
$$$$
CLR_2rh1_C_413
  PyMOL2.2          3D                             0

 28 31  0  0  1  0  0  0  0  0999 V2000
   -5.0486   -0.7677    0.1993 C   0  0  0  0  0  0  0  0  0  0  0  0
   -6.5730   -0.5597    0.2628 C   0  0  0  0  0  0  0  0  0  0  0  0
   -6.8814    0.8417    0.7855 C   0  0  3  0  0  0  0  0  0  0  0  0
   -6.2122    1.9174   -0.0774 C   0  0  0  0  0  0  0  0  0  0  0  0
   -4.7151    1.6932   -0.2307 C   0  0  0  0  0  0  0  0  0  0  0  0
   -3.8640    2.7145   -0.0398 C   0  0  0  0  0  0  0  0  0  0  0  0
   -2.3632    2.5948   -0.1649 C   0  0  0  0  0  0  0  0  0  0  0  0
   -1.9001    1.3168   -0.8848 C   0  0  3  0  0  0  0  0  0  0  0  0
   -2.7213    0.0997   -0.3837 C   0  0  3  0  0  0  0  0  0  0  0  0
   -4.2644    0.2824   -0.6431 C   0  0  3  0  0  0  0  0  0  0  0  0
   -2.1433   -1.2650   -0.8607 C   0  0  0  0  0  0  0  0  0  0  0  0
   -0.6143   -1.3933   -0.6988 C   0  0  0  0  0  0  0  0  0  0  0  0
    0.1361   -0.2039   -1.3314 C   0  0  3  0  0  0  0  0  0  0  0  0
   -0.3988    1.0653   -0.6439 C   0  0  3  0  0  0  0  0  0  0  0  0
    0.6016    2.1534   -1.0444 C   0  0  0  0  0  0  0  0  0  0  0  0
    1.9480    1.4118   -1.1215 C   0  0  0  0  0  0  0  0  0  0  0  0
    1.6253   -0.0872   -0.9151 C   0  0  3  0  0  0  0  0  0  0  0  0
   -0.0556   -0.2224   -2.8702 C   0  0  0  0  0  0  0  0  0  0  0  0
   -4.6121    0.0987   -2.1413 C   0  0  0  0  0  0  0  0  0  0  0  0
    2.6458   -1.1188   -1.4839 C   0  0  3  0  0  0  0  0  0  0  0  0
    3.7861   -1.2957   -0.4602 C   0  0  0  0  0  0  0  0  0  0  0  0
    3.2609   -0.7724   -2.8613 C   0  0  0  0  0  0  0  0  0  0  0  0
    3.8499   -1.9911   -3.5941 C   0  0  0  0  0  0  0  0  0  0  0  0
    4.5438   -1.6548   -4.9274 C   0  0  0  0  0  0  0  0  0  0  0  0
    3.6288   -1.0339   -6.0071 C   0  0  0  0  0  0  0  0  0  0  0  0
    3.7248    0.5002   -6.0337 C   0  0  0  0  0  0  0  0  0  0  0  0
    4.0276   -1.5505   -7.3966 C   0  0  0  0  0  0  0  0  0  0  0  0
   -8.2826    1.0153    0.7860 O   0  0  0  0  0  0  0  0  0  0  0  0
  1  2  1  0  0  0  0
  1 10  1  0  0  0  0
  2  3  1  0  0  0  0
  3  4  1  0  0  0  0
  3 28  1  0  0  0  0
  4  5  1  0  0  0  0
  5  6  2  0  0  0  0
  5 10  1  0  0  0  0
  6  7  1  0  0  0  0
  7  8  1  0  0  0  0
  8  9  1  0  0  0  0
  8 14  1  0  0  0  0
  9 10  1  0  0  0  0
  9 11  1  0  0  0  0
 10 19  1  0  0  0  0
 11 12  1  0  0  0  0
 12 13  1  0  0  0  0
 13 14  1  0  0  0  0
 13 17  1  0  0  0  0
 13 18  1  0  0  0  0
 14 15  1  0  0  0  0
 15 16  1  0  0  0  0
 16 17  1  0  0  0  0
 17 20  1  0  0  0  0
 20 21  1  0  0  0  0
 20 22  1  0  0  0  0
 22 23  1  0  0  0  0
 23 24  1  0  0  0  0
 24 25  1  0  0  0  0
 25 26  1  0  0  0  0
 25 27  1  0  0  0  0
M  END
$$$$
CLR_2rh1_C_413
  PyMOL2.2          3D                             0

 28 31  0  0  1  0  0  0  0  0999 V2000
   -5.0287   -0.7296    0.2742 C   0  0  0  0  0  0  0  0  0  0  0  0
   -6.5524   -0.5175    0.3494 C   0  0  0  0  0  0  0  0  0  0  0  0
   -6.8498    0.8884    0.8680 C   0  0  3  0  0  0  0  0  0  0  0  0
   -6.1770    1.9646    0.0082 C   0  0  0  0  0  0  0  0  0  0  0  0
   -4.6848    1.7252   -0.1704 C   0  0  0  0  0  0  0  0  0  0  0  0
   -3.8232    2.7411    0.0041 C   0  0  0  0  0  0  0  0  0  0  0  0
   -2.3256    2.6106   -0.1435 C   0  0  0  0  0  0  0  0  0  0  0  0
   -1.8828    1.3271   -0.8660 C   0  0  3  0  0  0  0  0  0  0  0  0
   -2.7049    0.1173   -0.3479 C   0  0  3  0  0  0  0  0  0  0  0  0
   -4.2503    0.3103   -0.5856 C   0  0  3  0  0  0  0  0  0  0  0  0
   -2.1430   -1.2520   -0.8335 C   0  0  0  0  0  0  0  0  0  0  0  0
   -0.6129   -1.3892   -0.6931 C   0  0  0  0  0  0  0  0  0  0  0  0
    0.1366   -0.2080   -1.3416 C   0  0  3  0  0  0  0  0  0  0  0  0
   -0.3790    1.0650   -0.6479 C   0  0  3  0  0  0  0  0  0  0  0  0
    0.6193    2.1496   -1.0622 C   0  0  0  0  0  0  0  0  0  0  0  0
    1.9498    1.3918   -1.2133 C   0  0  0  0  0  0  0  0  0  0  0  0
    1.6347   -0.0988   -0.9589 C   0  0  3  0  0  0  0  0  0  0  0  0
   -0.0726   -0.2307   -2.8803 C   0  0  0  0  0  0  0  0  0  0  0  0
   -4.6217    0.1247   -2.0766 C   0  0  0  0  0  0  0  0  0  0  0  0
    2.6093   -1.1681   -1.5446 C   0  0  3  0  0  0  0  0  0  0  0  0
    3.6615   -1.5503   -0.4869 C   0  0  0  0  0  0  0  0  0  0  0  0
    3.2843   -0.8583   -2.9062 C   0  0  0  0  0  0  0  0  0  0  0  0
    4.5906   -0.0332   -2.8716 C   0  0  0  0  0  0  0  0  0  0  0  0
    5.0972    0.3380   -4.2786 C   0  0  0  0  0  0  0  0  0  0  0  0
    4.2812    1.4138   -5.0256 C   0  0  0  0  0  0  0  0  0  0  0  0
    4.4016    2.7981   -4.3693 C   0  0  0  0  0  0  0  0  0  0  0  0
    4.7901    1.5165   -6.4695 C   0  0  0  0  0  0  0  0  0  0  0  0
   -8.2477    1.0748    0.8794 O   0  0  0  0  0  0  0  0  0  0  0  0
  1  2  1  0  0  0  0
  1 10  1  0  0  0  0
  2  3  1  0  0  0  0
  3  4  1  0  0  0  0
  3 28  1  0  0  0  0
  4  5  1  0  0  0  0
  5  6  2  0  0  0  0
  5 10  1  0  0  0  0
  6  7  1  0  0  0  0
  7  8  1  0  0  0  0
  8  9  1  0  0  0  0
  8 14  1  0  0  0  0
  9 10  1  0  0  0  0
  9 11  1  0  0  0  0
 10 19  1  0  0  0  0
 11 12  1  0  0  0  0
 12 13  1  0  0  0  0
 13 14  1  0  0  0  0
 13 17  1  0  0  0  0
 13 18  1  0  0  0  0
 14 15  1  0  0  0  0
 15 16  1  0  0  0  0
 16 17  1  0  0  0  0
 17 20  1  0  0  0  0
 20 21  1  0  0  0  0
 20 22  1  0  0  0  0
 22 23  1  0  0  0  0
 23 24  1  0  0  0  0
 24 25  1  0  0  0  0
 25 26  1  0  0  0  0
 25 27  1  0  0  0  0
M  END
$$$$
CLR_2rh1_C_413
  PyMOL2.2          3D                             0

 28 31  0  0  1  0  0  0  0  0999 V2000
   -5.0308   -0.7319    0.2676 C   0  0  0  0  0  0  0  0  0  0  0  0
   -6.5517   -0.5122    0.3593 C   0  0  0  0  0  0  0  0  0  0  0  0
   -6.8405    0.8930    0.8826 C   0  0  3  0  0  0  0  0  0  0  0  0
   -6.1790    1.9615    0.0053 C   0  0  0  0  0  0  0  0  0  0  0  0
   -4.6863    1.7257   -0.1753 C   0  0  0  0  0  0  0  0  0  0  0  0
   -3.8247    2.7414   -0.0043 C   0  0  0  0  0  0  0  0  0  0  0  0
   -2.3274    2.6104   -0.1576 C   0  0  0  0  0  0  0  0  0  0  0  0
   -1.8858    1.3266   -0.8790 C   0  0  3  0  0  0  0  0  0  0  0  0
   -2.7073    0.1164   -0.3581 C   0  0  3  0  0  0  0  0  0  0  0  0
   -4.2535    0.3092   -0.5917 C   0  0  3  0  0  0  0  0  0  0  0  0
   -2.1485   -1.2544   -0.8402 C   0  0  0  0  0  0  0  0  0  0  0  0
   -0.6181   -1.3946   -0.7044 C   0  0  0  0  0  0  0  0  0  0  0  0
    0.1323   -0.2116   -1.3520 C   0  0  3  0  0  0  0  0  0  0  0  0
   -0.3827    1.0640   -0.6614 C   0  0  3  0  0  0  0  0  0  0  0  0
    0.6214    2.1415   -1.0813 C   0  0  0  0  0  0  0  0  0  0  0  0
    1.9636    1.3899   -1.1534 C   0  0  0  0  0  0  0  0  0  0  0  0
    1.6266   -0.1059   -0.9543 C   0  0  3  0  0  0  0  0  0  0  0  0
   -0.0862   -0.2314   -2.8866 C   0  0  0  0  0  0  0  0  0  0  0  0
   -4.6293    0.1249   -2.0825 C   0  0  0  0  0  0  0  0  0  0  0  0
    2.6406   -1.1429   -1.5242 C   0  0  3  0  0  0  0  0  0  0  0  0
    3.8443   -1.2096   -0.5613 C   0  0  0  0  0  0  0  0  0  0  0  0
    3.1601   -0.8894   -2.9651 C   0  0  0  0  0  0  0  0  0  0  0  0
    3.2585   -2.1526   -3.8442 C   0  0  0  0  0  0  0  0  0  0  0  0
    4.3194   -3.1935   -3.4412 C   0  0  0  0  0  0  0  0  0  0  0  0
    5.7826   -2.7028   -3.4661 C   0  0  0  0  0  0  0  0  0  0  0  0
    6.6970   -3.8280   -2.9626 C   0  0  0  0  0  0  0  0  0  0  0  0
    6.2359   -2.2852   -4.8713 C   0  0  0  0  0  0  0  0  0  0  0  0
   -8.2393    1.0769    0.9091 O   0  0  0  0  0  0  0  0  0  0  0  0
  1  2  1  0  0  0  0
  1 10  1  0  0  0  0
  2  3  1  0  0  0  0
  3  4  1  0  0  0  0
  3 28  1  0  0  0  0
  4  5  1  0  0  0  0
  5  6  2  0  0  0  0
  5 10  1  0  0  0  0
  6  7  1  0  0  0  0
  7  8  1  0  0  0  0
  8  9  1  0  0  0  0
  8 14  1  0  0  0  0
  9 10  1  0  0  0  0
  9 11  1  0  0  0  0
 10 19  1  0  0  0  0
 11 12  1  0  0  0  0
 12 13  1  0  0  0  0
 13 14  1  0  0  0  0
 13 17  1  0  0  0  0
 13 18  1  0  0  0  0
 14 15  1  0  0  0  0
 15 16  1  0  0  0  0
 16 17  1  0  0  0  0
 17 20  1  0  0  0  0
 20 21  1  0  0  0  0
 20 22  1  0  0  0  0
 22 23  1  0  0  0  0
 23 24  1  0  0  0  0
 24 25  1  0  0  0  0
 25 26  1  0  0  0  0
 25 27  1  0  0  0  0
M  END
$$$$
CLR_2rh1_C_413
  PyMOL2.2          3D                             0

 28 31  0  0  1  0  0  0  0  0999 V2000
   -5.0813   -0.7708    0.1807 C   0  0  0  0  0  0  0  0  0  0  0  0
   -6.6047   -0.5559    0.2327 C   0  0  0  0  0  0  0  0  0  0  0  0
   -6.9118    0.8478    0.7493 C   0  0  3  0  0  0  0  0  0  0  0  0
   -6.2315    1.9180   -0.1110 C   0  0  0  0  0  0  0  0  0  0  0  0
   -4.7336    1.6870   -0.2526 C   0  0  0  0  0  0  0  0  0  0  0  0
   -3.8789    2.7050   -0.0574 C   0  0  0  0  0  0  0  0  0  0  0  0
   -2.3785    2.5774   -0.1708 C   0  0  0  0  0  0  0  0  0  0  0  0
   -1.9138    1.2952   -0.8827 C   0  0  3  0  0  0  0  0  0  0  0  0
   -2.7462    0.0861   -0.3864 C   0  0  3  0  0  0  0  0  0  0  0  0
   -4.2864    0.2731   -0.6582 C   0  0  3  0  0  0  0  0  0  0  0  0
   -2.1659   -1.2720   -0.8702 C   0  0  0  0  0  0  0  0  0  0  0  0
   -0.6438   -1.4055   -0.6691 C   0  0  0  0  0  0  0  0  0  0  0  0
    0.1405   -0.2354   -1.3044 C   0  0  3  0  0  0  0  0  0  0  0  0
   -0.4139    1.0364   -0.6309 C   0  0  3  0  0  0  0  0  0  0  0  0
    0.5657    2.1351   -1.0341 C   0  0  0  0  0  0  0  0  0  0  0  0
    1.9145    1.4065   -1.0636 C   0  0  0  0  0  0  0  0  0  0  0  0
    1.6347   -0.1062   -0.8911 C   0  0  3  0  0  0  0  0  0  0  0  0
   -0.0090   -0.2579   -2.8498 C   0  0  0  0  0  0  0  0  0  0  0  0
   -4.6237    0.0878   -2.1587 C   0  0  0  0  0  0  0  0  0  0  0  0
    2.7220   -0.9784   -1.5894 C   0  0  3  0  0  0  0  0  0  0  0  0
    2.4745   -2.4870   -1.4337 C   0  0  0  0  0  0  0  0  0  0  0  0
    4.1710   -0.6447   -1.1427 C   0  0  0  0  0  0  0  0  0  0  0  0
    4.5356   -0.8840    0.3416 C   0  0  0  0  0  0  0  0  0  0  0  0
    5.1973   -2.2447    0.6416 C   0  0  0  0  0  0  0  0  0  0  0  0
    6.7401   -2.2261    0.6418 C   0  0  0  0  0  0  0  0  0  0  0  0
    7.2593   -3.6115    1.0491 C   0  0  0  0  0  0  0  0  0  0  0  0
    7.3453   -1.8540   -0.7176 C   0  0  0  0  0  0  0  0  0  0  0  0
   -8.3124    1.0272    0.7380 O   0  0  0  0  0  0  0  0  0  0  0  0
  1  2  1  0  0  0  0
  1 10  1  0  0  0  0
  2  3  1  0  0  0  0
  3  4  1  0  0  0  0
  3 28  1  0  0  0  0
  4  5  1  0  0  0  0
  5  6  2  0  0  0  0
  5 10  1  0  0  0  0
  6  7  1  0  0  0  0
  7  8  1  0  0  0  0
  8  9  1  0  0  0  0
  8 14  1  0  0  0  0
  9 10  1  0  0  0  0
  9 11  1  0  0  0  0
 10 19  1  0  0  0  0
 11 12  1  0  0  0  0
 12 13  1  0  0  0  0
 13 14  1  0  0  0  0
 13 17  1  0  0  0  0
 13 18  1  0  0  0  0
 14 15  1  0  0  0  0
 15 16  1  0  0  0  0
 16 17  1  0  0  0  0
 17 20  1  0  0  0  0
 20 21  1  0  0  0  0
 20 22  1  0  0  0  0
 22 23  1  0  0  0  0
 23 24  1  0  0  0  0
 24 25  1  0  0  0  0
 25 26  1  0  0  0  0
 25 27  1  0  0  0  0
M  END
$$$$
CLR_2rh1_C_413
  PyMOL2.2          3D                             0

 28 31  0  0  1  0  0  0  0  0999 V2000
   -5.0486   -0.7678    0.1982 C   0  0  0  0  0  0  0  0  0  0  0  0
   -6.5733   -0.5609    0.2604 C   0  0  0  0  0  0  0  0  0  0  0  0
   -6.8825    0.8409    0.7820 C   0  0  3  0  0  0  0  0  0  0  0  0
   -6.2122    1.9169   -0.0790 C   0  0  0  0  0  0  0  0  0  0  0  0
   -4.7152    1.6935   -0.2314 C   0  0  0  0  0  0  0  0  0  0  0  0
   -3.8643    2.7149   -0.0392 C   0  0  0  0  0  0  0  0  0  0  0  0
   -2.3634    2.5958   -0.1615 C   0  0  0  0  0  0  0  0  0  0  0  0
   -1.8998    1.3181   -0.8820 C   0  0  3  0  0  0  0  0  0  0  0  0
   -2.7203    0.0999   -0.3810 C   0  0  3  0  0  0  0  0  0  0  0  0
   -4.2645    0.2819   -0.6429 C   0  0  3  0  0  0  0  0  0  0  0  0
   -2.1431   -1.2647   -0.8592 C   0  0  0  0  0  0  0  0  0  0  0  0
   -0.6138   -1.3918   -0.6946 C   0  0  0  0  0  0  0  0  0  0  0  0
    0.1366   -0.2031   -1.3286 C   0  0  3  0  0  0  0  0  0  0  0  0
   -0.3982    1.0662   -0.6420 C   0  0  3  0  0  0  0  0  0  0  0  0
    0.6011    2.1547   -1.0444 C   0  0  0  0  0  0  0  0  0  0  0  0
    1.9475    1.4113   -1.1252 C   0  0  0  0  0  0  0  0  0  0  0  0
    1.6261   -0.0871   -0.9176 C   0  0  3  0  0  0  0  0  0  0  0  0
   -0.0552   -0.2248   -2.8671 C   0  0  0  0  0  0  0  0  0  0  0  0
   -4.6098    0.0991   -2.1414 C   0  0  0  0  0  0  0  0  0  0  0  0
    2.6421   -1.1215   -1.4915 C   0  0  3  0  0  0  0  0  0  0  0  0
    3.7698   -1.3272   -0.4609 C   0  0  0  0  0  0  0  0  0  0  0  0
    3.2718   -0.7638   -2.8610 C   0  0  0  0  0  0  0  0  0  0  0  0
    3.9368   -1.9621   -3.5662 C   0  0  0  0  0  0  0  0  0  0  0  0
    4.4656   -1.6107   -4.9732 C   0  0  0  0  0  0  0  0  0  0  0  0
    3.5469   -1.9080   -6.1792 C   0  0  0  0  0  0  0  0  0  0  0  0
    3.3356   -3.4159   -6.3821 C   0  0  0  0  0  0  0  0  0  0  0  0
    2.1838   -1.2103   -6.1000 C   0  0  0  0  0  0  0  0  0  0  0  0
   -8.2839    1.0145    0.7808 O   0  0  0  0  0  0  0  0  0  0  0  0
  1  2  1  0  0  0  0
  1 10  1  0  0  0  0
  2  3  1  0  0  0  0
  3  4  1  0  0  0  0
  3 28  1  0  0  0  0
  4  5  1  0  0  0  0
  5  6  2  0  0  0  0
  5 10  1  0  0  0  0
  6  7  1  0  0  0  0
  7  8  1  0  0  0  0
  8  9  1  0  0  0  0
  8 14  1  0  0  0  0
  9 10  1  0  0  0  0
  9 11  1  0  0  0  0
 10 19  1  0  0  0  0
 11 12  1  0  0  0  0
 12 13  1  0  0  0  0
 13 14  1  0  0  0  0
 13 17  1  0  0  0  0
 13 18  1  0  0  0  0
 14 15  1  0  0  0  0
 15 16  1  0  0  0  0
 16 17  1  0  0  0  0
 17 20  1  0  0  0  0
 20 21  1  0  0  0  0
 20 22  1  0  0  0  0
 22 23  1  0  0  0  0
 23 24  1  0  0  0  0
 24 25  1  0  0  0  0
 25 26  1  0  0  0  0
 25 27  1  0  0  0  0
M  END
$$$$
CLR_2rh1_C_413
  PyMOL2.2          3D                             0

 28 31  0  0  1  0  0  0  0  0999 V2000
   -5.0489   -0.7688    0.1982 C   0  0  0  0  0  0  0  0  0  0  0  0
   -6.5730   -0.5605    0.2618 C   0  0  0  0  0  0  0  0  0  0  0  0
   -6.8815    0.8408    0.7866 C   0  0  3  0  0  0  0  0  0  0  0  0
   -6.2129    1.9172   -0.0752 C   0  0  0  0  0  0  0  0  0  0  0  0
   -4.7149    1.6933   -0.2296 C   0  0  0  0  0  0  0  0  0  0  0  0
   -3.8643    2.7148   -0.0376 C   0  0  0  0  0  0  0  0  0  0  0  0
   -2.3635    2.5958   -0.1633 C   0  0  0  0  0  0  0  0  0  0  0  0
   -1.9004    1.3177   -0.8843 C   0  0  3  0  0  0  0  0  0  0  0  0
   -2.7217    0.0998   -0.3845 C   0  0  3  0  0  0  0  0  0  0  0  0
   -4.2646    0.2820   -0.6439 C   0  0  3  0  0  0  0  0  0  0  0  0
   -2.1432   -1.2642   -0.8647 C   0  0  0  0  0  0  0  0  0  0  0  0
   -0.6145   -1.3921   -0.6981 C   0  0  0  0  0  0  0  0  0  0  0  0
    0.1373   -0.2031   -1.3304 C   0  0  3  0  0  0  0  0  0  0  0  0
   -0.3987    1.0659   -0.6441 C   0  0  3  0  0  0  0  0  0  0  0  0
    0.6011    2.1549   -1.0449 C   0  0  0  0  0  0  0  0  0  0  0  0
    1.9470    1.4115   -1.1302 C   0  0  0  0  0  0  0  0  0  0  0  0
    1.6255   -0.0856   -0.9139 C   0  0  3  0  0  0  0  0  0  0  0  0
   -0.0505   -0.2248   -2.8700 C   0  0  0  0  0  0  0  0  0  0  0  0
   -4.6128    0.1002   -2.1420 C   0  0  0  0  0  0  0  0  0  0  0  0
    2.6439   -1.1233   -1.4779 C   0  0  3  0  0  0  0  0  0  0  0  0
    3.7751   -1.3181   -0.4470 C   0  0  0  0  0  0  0  0  0  0  0  0
    3.2740   -0.7776   -2.8493 C   0  0  0  0  0  0  0  0  0  0  0  0
    4.0148   -1.9560   -3.5034 C   0  0  0  0  0  0  0  0  0  0  0  0
    4.3113   -1.7755   -5.0070 C   0  0  0  0  0  0  0  0  0  0  0  0
    5.2555   -0.6412   -5.4663 C   0  0  0  0  0  0  0  0  0  0  0  0
    4.5619    0.7254   -5.5779 C   0  0  0  0  0  0  0  0  0  0  0  0
    6.5155   -0.5220   -4.5984 C   0  0  0  0  0  0  0  0  0  0  0  0
   -8.2825    1.0142    0.7879 O   0  0  0  0  0  0  0  0  0  0  0  0
  1  2  1  0  0  0  0
  1 10  1  0  0  0  0
  2  3  1  0  0  0  0
  3  4  1  0  0  0  0
  3 28  1  0  0  0  0
  4  5  1  0  0  0  0
  5  6  2  0  0  0  0
  5 10  1  0  0  0  0
  6  7  1  0  0  0  0
  7  8  1  0  0  0  0
  8  9  1  0  0  0  0
  8 14  1  0  0  0  0
  9 10  1  0  0  0  0
  9 11  1  0  0  0  0
 10 19  1  0  0  0  0
 11 12  1  0  0  0  0
 12 13  1  0  0  0  0
 13 14  1  0  0  0  0
 13 17  1  0  0  0  0
 13 18  1  0  0  0  0
 14 15  1  0  0  0  0
 15 16  1  0  0  0  0
 16 17  1  0  0  0  0
 17 20  1  0  0  0  0
 20 21  1  0  0  0  0
 20 22  1  0  0  0  0
 22 23  1  0  0  0  0
 23 24  1  0  0  0  0
 24 25  1  0  0  0  0
 25 26  1  0  0  0  0
 25 27  1  0  0  0  0
M  END
$$$$
CLR_2rh1_C_413
  PyMOL2.2          3D                             0

 28 31  0  0  1  0  0  0  0  0999 V2000
   -5.0479   -0.7684    0.2000 C   0  0  0  0  0  0  0  0  0  0  0  0
   -6.5719   -0.5609    0.2670 C   0  0  0  0  0  0  0  0  0  0  0  0
   -6.8794    0.8405    0.7914 C   0  0  3  0  0  0  0  0  0  0  0  0
   -6.2124    1.9171   -0.0723 C   0  0  0  0  0  0  0  0  0  0  0  0
   -4.7149    1.6930   -0.2299 C   0  0  0  0  0  0  0  0  0  0  0  0
   -3.8639    2.7151   -0.0414 C   0  0  0  0  0  0  0  0  0  0  0  0
   -2.3631    2.5961   -0.1709 C   0  0  0  0  0  0  0  0  0  0  0  0
   -1.9010    1.3179   -0.8899 C   0  0  3  0  0  0  0  0  0  0  0  0
   -2.7210    0.1002   -0.3863 C   0  0  3  0  0  0  0  0  0  0  0  0
   -4.2655    0.2822   -0.6437 C   0  0  3  0  0  0  0  0  0  0  0  0
   -2.1452   -1.2654   -0.8654 C   0  0  0  0  0  0  0  0  0  0  0  0
   -0.6160   -1.3947   -0.7043 C   0  0  0  0  0  0  0  0  0  0  0  0
    0.1348   -0.2041   -1.3357 C   0  0  3  0  0  0  0  0  0  0  0  0
   -0.3989    1.0657   -0.6497 C   0  0  3  0  0  0  0  0  0  0  0  0
    0.6031    2.1524   -1.0521 C   0  0  0  0  0  0  0  0  0  0  0  0
    1.9515    1.4102   -1.1050 C   0  0  0  0  0  0  0  0  0  0  0  0
    1.6235   -0.0882   -0.9140 C   0  0  3  0  0  0  0  0  0  0  0  0
   -0.0585   -0.2208   -2.8740 C   0  0  0  0  0  0  0  0  0  0  0  0
   -4.6160    0.1006   -2.1410 C   0  0  0  0  0  0  0  0  0  0  0  0
    2.6520   -1.1168   -1.4709 C   0  0  3  0  0  0  0  0  0  0  0  0
    3.8551   -1.1582   -0.5057 C   0  0  0  0  0  0  0  0  0  0  0  0
    3.1815   -0.8742   -2.9091 C   0  0  0  0  0  0  0  0  0  0  0  0
    3.2576   -2.1382   -3.7871 C   0  0  0  0  0  0  0  0  0  0  0  0
    4.2613   -3.1935   -3.2852 C   0  0  0  0  0  0  0  0  0  0  0  0
    4.4507   -4.4251   -4.1959 C   0  0  0  0  0  0  0  0  0  0  0  0
    3.1463   -5.2095   -4.3931 C   0  0  0  0  0  0  0  0  0  0  0  0
    5.0439   -4.0595   -5.5629 C   0  0  0  0  0  0  0  0  0  0  0  0
   -8.2801    1.0143    0.7953 O   0  0  0  0  0  0  0  0  0  0  0  0
  1  2  1  0  0  0  0
  1 10  1  0  0  0  0
  2  3  1  0  0  0  0
  3  4  1  0  0  0  0
  3 28  1  0  0  0  0
  4  5  1  0  0  0  0
  5  6  2  0  0  0  0
  5 10  1  0  0  0  0
  6  7  1  0  0  0  0
  7  8  1  0  0  0  0
  8  9  1  0  0  0  0
  8 14  1  0  0  0  0
  9 10  1  0  0  0  0
  9 11  1  0  0  0  0
 10 19  1  0  0  0  0
 11 12  1  0  0  0  0
 12 13  1  0  0  0  0
 13 14  1  0  0  0  0
 13 17  1  0  0  0  0
 13 18  1  0  0  0  0
 14 15  1  0  0  0  0
 15 16  1  0  0  0  0
 16 17  1  0  0  0  0
 17 20  1  0  0  0  0
 20 21  1  0  0  0  0
 20 22  1  0  0  0  0
 22 23  1  0  0  0  0
 23 24  1  0  0  0  0
 24 25  1  0  0  0  0
 25 26  1  0  0  0  0
 25 27  1  0  0  0  0
M  END
$$$$
CLR_2rh1_C_413
  PyMOL2.2          3D                             0

 28 31  0  0  1  0  0  0  0  0999 V2000
   -4.9179   -0.8046    0.2628 C   0  0  0  0  0  0  0  0  0  0  0  0
   -6.4477   -0.7679    0.0868 C   0  0  0  0  0  0  0  0  0  0  0  0
   -6.9614    0.6519    0.3226 C   0  0  3  0  0  0  0  0  0  0  0  0
   -6.2698    1.6576   -0.6033 C   0  0  0  0  0  0  0  0  0  0  0  0
   -4.7518    1.5842   -0.5170 C   0  0  0  0  0  0  0  0  0  0  0  0
   -4.0369    2.7141   -0.3839 C   0  0  0  0  0  0  0  0  0  0  0  0
   -2.5295    2.7502   -0.2869 C   0  0  0  0  0  0  0  0  0  0  0  0
   -1.8488    1.4420   -0.7226 C   0  0  3  0  0  0  0  0  0  0  0  0
   -2.6188    0.2249   -0.1438 C   0  0  3  0  0  0  0  0  0  0  0  0
   -4.1167    0.1896   -0.6308 C   0  0  3  0  0  0  0  0  0  0  0  0
   -1.8526   -1.1190   -0.3159 C   0  0  0  0  0  0  0  0  0  0  0  0
   -0.3613   -1.0451    0.0721 C   0  0  0  0  0  0  0  0  0  0  0  0
    0.3646    0.1140   -0.6410 C   0  0  3  0  0  0  0  0  0  0  0  0
   -0.3824    1.4013   -0.2489 C   0  0  3  0  0  0  0  0  0  0  0  0
    0.5607    2.5257   -0.6855 C   0  0  0  0  0  0  0  0  0  0  0  0
    1.9671    1.9365   -0.4722 C   0  0  0  0  0  0  0  0  0  0  0  0
    1.7577    0.4622   -0.0564 C   0  0  3  0  0  0  0  0  0  0  0  0
    0.4120   -0.1569   -2.1670 C   0  0  0  0  0  0  0  0  0  0  0  0
   -4.2206   -0.2533   -2.1108 C   0  0  0  0  0  0  0  0  0  0  0  0
    2.9386   -0.5275   -0.2981 C   0  0  3  0  0  0  0  0  0  0  0  0
    3.9034   -0.4537    0.9013 C   0  0  0  0  0  0  0  0  0  0  0  0
    3.7419   -0.3238   -1.6089 C   0  0  0  0  0  0  0  0  0  0  0  0
    4.7195   -1.4682   -1.9472 C   0  0  0  0  0  0  0  0  0  0  0  0
    6.1905   -1.0726   -1.7176 C   0  0  0  0  0  0  0  0  0  0  0  0
    7.1910   -2.1777   -2.1083 C   0  0  0  0  0  0  0  0  0  0  0  0
    8.6178   -1.6238   -2.0035 C   0  0  0  0  0  0  0  0  0  0  0  0
    7.0770   -3.4196   -1.2106 C   0  0  0  0  0  0  0  0  0  0  0  0
   -8.3541    0.6695    0.0975 O   0  0  0  0  0  0  0  0  0  0  0  0
  1  2  1  0  0  0  0
  1 10  1  0  0  0  0
  2  3  1  0  0  0  0
  3  4  1  0  0  0  0
  3 28  1  0  0  0  0
  4  5  1  0  0  0  0
  5  6  2  0  0  0  0
  5 10  1  0  0  0  0
  6  7  1  0  0  0  0
  7  8  1  0  0  0  0
  8  9  1  0  0  0  0
  8 14  1  0  0  0  0
  9 10  1  0  0  0  0
  9 11  1  0  0  0  0
 10 19  1  0  0  0  0
 11 12  1  0  0  0  0
 12 13  1  0  0  0  0
 13 14  1  0  0  0  0
 13 17  1  0  0  0  0
 13 18  1  0  0  0  0
 14 15  1  0  0  0  0
 15 16  1  0  0  0  0
 16 17  1  0  0  0  0
 17 20  1  0  0  0  0
 20 21  1  0  0  0  0
 20 22  1  0  0  0  0
 22 23  1  0  0  0  0
 23 24  1  0  0  0  0
 24 25  1  0  0  0  0
 25 26  1  0  0  0  0
 25 27  1  0  0  0  0
M  END
$$$$
CLR_2rh1_C_413
  PyMOL2.2          3D                             0

 28 31  0  0  1  0  0  0  0  0999 V2000
   -4.9374   -0.7873    0.2621 C   0  0  0  0  0  0  0  0  0  0  0  0
   -6.4703   -0.7082    0.1312 C   0  0  0  0  0  0  0  0  0  0  0  0
   -6.9417    0.7129    0.4385 C   0  0  3  0  0  0  0  0  0  0  0  0
   -6.2518    1.7384   -0.4659 C   0  0  0  0  0  0  0  0  0  0  0  0
   -4.7342    1.6269   -0.4271 C   0  0  0  0  0  0  0  0  0  0  0  0
   -3.9876    2.7326   -0.2694 C   0  0  0  0  0  0  0  0  0  0  0  0
   -2.4782    2.7292   -0.2154 C   0  0  0  0  0  0  0  0  0  0  0  0
   -1.8423    1.4235   -0.7216 C   0  0  3  0  0  0  0  0  0  0  0  0
   -2.6261    0.2039   -0.1692 C   0  0  3  0  0  0  0  0  0  0  0  0
   -4.1373    0.2225   -0.6139 C   0  0  3  0  0  0  0  0  0  0  0  0
   -1.8982   -1.1507   -0.4159 C   0  0  0  0  0  0  0  0  0  0  0  0
   -0.3950   -1.1279   -0.0685 C   0  0  0  0  0  0  0  0  0  0  0  0
    0.3391    0.0417   -0.7560 C   0  0  3  0  0  0  0  0  0  0  0  0
   -0.3656    1.3296   -0.2921 C   0  0  3  0  0  0  0  0  0  0  0  0
    0.5934    2.4487   -0.7114 C   0  0  0  0  0  0  0  0  0  0  0  0
    1.9896    1.8190   -0.5622 C   0  0  0  0  0  0  0  0  0  0  0  0
    1.7559    0.3337   -0.1996 C   0  0  3  0  0  0  0  0  0  0  0  0
    0.3366   -0.1680   -2.2924 C   0  0  0  0  0  0  0  0  0  0  0  0
   -4.2935   -0.1580   -2.1079 C   0  0  0  0  0  0  0  0  0  0  0  0
    2.9055   -0.6722   -0.5132 C   0  0  3  0  0  0  0  0  0  0  0  0
    3.9058   -0.6667    0.6592 C   0  0  0  0  0  0  0  0  0  0  0  0
    3.6759   -0.4352   -1.8378 C   0  0  0  0  0  0  0  0  0  0  0  0
    4.6135   -1.5889   -2.2490 C   0  0  0  0  0  0  0  0  0  0  0  0
    6.1000   -1.2365   -2.0498 C   0  0  0  0  0  0  0  0  0  0  0  0
    7.0475   -2.4283   -2.2844 C   0  0  0  0  0  0  0  0  0  0  0  0
    7.0089   -2.9365   -3.7334 C   0  0  0  0  0  0  0  0  0  0  0  0
    8.4831   -2.0052   -1.9455 C   0  0  0  0  0  0  0  0  0  0  0  0
   -8.3393    0.7725    0.2540 O   0  0  0  0  0  0  0  0  0  0  0  0
  1  2  1  0  0  0  0
  1 10  1  0  0  0  0
  2  3  1  0  0  0  0
  3  4  1  0  0  0  0
  3 28  1  0  0  0  0
  4  5  1  0  0  0  0
  5  6  2  0  0  0  0
  5 10  1  0  0  0  0
  6  7  1  0  0  0  0
  7  8  1  0  0  0  0
  8  9  1  0  0  0  0
  8 14  1  0  0  0  0
  9 10  1  0  0  0  0
  9 11  1  0  0  0  0
 10 19  1  0  0  0  0
 11 12  1  0  0  0  0
 12 13  1  0  0  0  0
 13 14  1  0  0  0  0
 13 17  1  0  0  0  0
 13 18  1  0  0  0  0
 14 15  1  0  0  0  0
 15 16  1  0  0  0  0
 16 17  1  0  0  0  0
 17 20  1  0  0  0  0
 20 21  1  0  0  0  0
 20 22  1  0  0  0  0
 22 23  1  0  0  0  0
 23 24  1  0  0  0  0
 24 25  1  0  0  0  0
 25 26  1  0  0  0  0
 25 27  1  0  0  0  0
M  END
$$$$
CLR_2rh1_C_413
  PyMOL2.2          3D                             0

 28 31  0  0  1  0  0  0  0  0999 V2000
   -5.0582   -0.7576    0.2072 C   0  0  0  0  0  0  0  0  0  0  0  0
   -6.5830   -0.5462    0.2538 C   0  0  0  0  0  0  0  0  0  0  0  0
   -6.8945    0.8629    0.7553 C   0  0  3  0  0  0  0  0  0  0  0  0
   -6.2106    1.9279   -0.1082 C   0  0  0  0  0  0  0  0  0  0  0  0
   -4.7124    1.6956   -0.2463 C   0  0  0  0  0  0  0  0  0  0  0  0
   -3.8595    2.7158   -0.0572 C   0  0  0  0  0  0  0  0  0  0  0  0
   -2.3584    2.5908   -0.1684 C   0  0  0  0  0  0  0  0  0  0  0  0
   -1.8936    1.3052   -0.8736 C   0  0  3  0  0  0  0  0  0  0  0  0
   -2.7227    0.0946   -0.3673 C   0  0  3  0  0  0  0  0  0  0  0  0
   -4.2633    0.2801   -0.6411 C   0  0  3  0  0  0  0  0  0  0  0  0
   -2.1468   -1.2770   -0.8289 C   0  0  0  0  0  0  0  0  0  0  0  0
   -0.6196   -1.4079   -0.6512 C   0  0  0  0  0  0  0  0  0  0  0  0
    0.1395   -0.2270   -1.2896 C   0  0  3  0  0  0  0  0  0  0  0  0
   -0.3947    1.0503   -0.6200 C   0  0  3  0  0  0  0  0  0  0  0  0
    0.6122    2.1311   -1.0264 C   0  0  0  0  0  0  0  0  0  0  0  0
    1.9564    1.3826   -1.0869 C   0  0  0  0  0  0  0  0  0  0  0  0
    1.6269   -0.1123   -0.8662 C   0  0  3  0  0  0  0  0  0  0  0  0
   -0.0399   -0.2614   -2.8294 C   0  0  0  0  0  0  0  0  0  0  0  0
   -4.6010    0.0826   -2.1392 C   0  0  0  0  0  0  0  0  0  0  0  0
    2.6468   -1.1561   -1.4142 C   0  0  3  0  0  0  0  0  0  0  0  0
    3.7759   -1.3192   -0.3765 C   0  0  0  0  0  0  0  0  0  0  0  0
    3.2809   -0.8291   -2.7915 C   0  0  0  0  0  0  0  0  0  0  0  0
    3.9298   -2.0274   -3.5171 C   0  0  0  0  0  0  0  0  0  0  0  0
    2.9199   -3.0350   -4.1040 C   0  0  0  0  0  0  0  0  0  0  0  0
    2.6757   -2.8894   -5.6196 C   0  0  0  0  0  0  0  0  0  0  0  0
    1.7320   -4.0053   -6.0868 C   0  0  0  0  0  0  0  0  0  0  0  0
    2.0694   -1.5344   -6.0113 C   0  0  0  0  0  0  0  0  0  0  0  0
   -8.2931    1.0506    0.7317 O   0  0  0  0  0  0  0  0  0  0  0  0
  1  2  1  0  0  0  0
  1 10  1  0  0  0  0
  2  3  1  0  0  0  0
  3  4  1  0  0  0  0
  3 28  1  0  0  0  0
  4  5  1  0  0  0  0
  5  6  2  0  0  0  0
  5 10  1  0  0  0  0
  6  7  1  0  0  0  0
  7  8  1  0  0  0  0
  8  9  1  0  0  0  0
  8 14  1  0  0  0  0
  9 10  1  0  0  0  0
  9 11  1  0  0  0  0
 10 19  1  0  0  0  0
 11 12  1  0  0  0  0
 12 13  1  0  0  0  0
 13 14  1  0  0  0  0
 13 17  1  0  0  0  0
 13 18  1  0  0  0  0
 14 15  1  0  0  0  0
 15 16  1  0  0  0  0
 16 17  1  0  0  0  0
 17 20  1  0  0  0  0
 20 21  1  0  0  0  0
 20 22  1  0  0  0  0
 22 23  1  0  0  0  0
 23 24  1  0  0  0  0
 24 25  1  0  0  0  0
 25 26  1  0  0  0  0
 25 27  1  0  0  0  0
M  END
$$$$
CLR_2rh1_C_413
  PyMOL2.2          3D                             0

 28 31  0  0  1  0  0  0  0  0999 V2000
   -5.0443   -0.7708    0.1959 C   0  0  0  0  0  0  0  0  0  0  0  0
   -6.5689   -0.5663    0.2587 C   0  0  0  0  0  0  0  0  0  0  0  0
   -6.8813    0.8338    0.7826 C   0  0  3  0  0  0  0  0  0  0  0  0
   -6.2136    1.9116   -0.0766 C   0  0  0  0  0  0  0  0  0  0  0  0
   -4.7151    1.6912   -0.2295 C   0  0  0  0  0  0  0  0  0  0  0  0
   -3.8666    2.7137   -0.0350 C   0  0  0  0  0  0  0  0  0  0  0  0
   -2.3656    2.5978   -0.1588 C   0  0  0  0  0  0  0  0  0  0  0  0
   -1.8999    1.3224   -0.8810 C   0  0  3  0  0  0  0  0  0  0  0  0
   -2.7179    0.1020   -0.3824 C   0  0  3  0  0  0  0  0  0  0  0  0
   -4.2620    0.2815   -0.6440 C   0  0  3  0  0  0  0  0  0  0  0  0
   -2.1374   -1.2611   -0.8631 C   0  0  0  0  0  0  0  0  0  0  0  0
   -0.6091   -1.3864   -0.6969 C   0  0  0  0  0  0  0  0  0  0  0  0
    0.1388   -0.1949   -1.3272 C   0  0  3  0  0  0  0  0  0  0  0  0
   -0.3977    1.0735   -0.6409 C   0  0  3  0  0  0  0  0  0  0  0  0
    0.6024    2.1627   -1.0426 C   0  0  0  0  0  0  0  0  0  0  0  0
    1.9452    1.4165   -1.1552 C   0  0  0  0  0  0  0  0  0  0  0  0
    1.6290   -0.0789   -0.9193 C   0  0  3  0  0  0  0  0  0  0  0  0
   -0.0477   -0.2032   -2.8693 C   0  0  0  0  0  0  0  0  0  0  0  0
   -4.6079    0.1005   -2.1432 C   0  0  0  0  0  0  0  0  0  0  0  0
    2.6089   -1.1741   -1.4601 C   0  0  3  0  0  0  0  0  0  0  0  0
    3.2237   -1.9228   -0.2613 C   0  0  0  0  0  0  0  0  0  0  0  0
    3.7890   -0.7110   -2.3527 C   0  0  0  0  0  0  0  0  0  0  0  0
    3.4490   -0.4165   -3.8260 C   0  0  0  0  0  0  0  0  0  0  0  0
    3.1335   -1.6897   -4.6333 C   0  0  0  0  0  0  0  0  0  0  0  0
    2.8959   -1.4167   -6.1305 C   0  0  0  0  0  0  0  0  0  0  0  0
    2.7524   -2.7536   -6.8694 C   0  0  0  0  0  0  0  0  0  0  0  0
    1.6334   -0.5775   -6.3833 C   0  0  0  0  0  0  0  0  0  0  0  0
   -8.2824    1.0045    0.7832 O   0  0  0  0  0  0  0  0  0  0  0  0
  1  2  1  0  0  0  0
  1 10  1  0  0  0  0
  2  3  1  0  0  0  0
  3  4  1  0  0  0  0
  3 28  1  0  0  0  0
  4  5  1  0  0  0  0
  5  6  2  0  0  0  0
  5 10  1  0  0  0  0
  6  7  1  0  0  0  0
  7  8  1  0  0  0  0
  8  9  1  0  0  0  0
  8 14  1  0  0  0  0
  9 10  1  0  0  0  0
  9 11  1  0  0  0  0
 10 19  1  0  0  0  0
 11 12  1  0  0  0  0
 12 13  1  0  0  0  0
 13 14  1  0  0  0  0
 13 17  1  0  0  0  0
 13 18  1  0  0  0  0
 14 15  1  0  0  0  0
 15 16  1  0  0  0  0
 16 17  1  0  0  0  0
 17 20  1  0  0  0  0
 20 21  1  0  0  0  0
 20 22  1  0  0  0  0
 22 23  1  0  0  0  0
 23 24  1  0  0  0  0
 24 25  1  0  0  0  0
 25 26  1  0  0  0  0
 25 27  1  0  0  0  0
M  END
$$$$
CLR_2rh1_C_413
  PyMOL2.2          3D                             0

 28 31  0  0  1  0  0  0  0  0999 V2000
   -5.0688   -0.7570    0.2052 C   0  0  0  0  0  0  0  0  0  0  0  0
   -6.5922   -0.5381    0.2642 C   0  0  0  0  0  0  0  0  0  0  0  0
   -6.8916    0.8670    0.7811 C   0  0  3  0  0  0  0  0  0  0  0  0
   -6.2133    1.9353   -0.0840 C   0  0  0  0  0  0  0  0  0  0  0  0
   -4.7171    1.6992   -0.2326 C   0  0  0  0  0  0  0  0  0  0  0  0
   -3.8586    2.7140   -0.0437 C   0  0  0  0  0  0  0  0  0  0  0  0
   -2.3585    2.5817   -0.1648 C   0  0  0  0  0  0  0  0  0  0  0  0
   -1.9025    1.2969   -0.8783 C   0  0  3  0  0  0  0  0  0  0  0  0
   -2.7351    0.0911   -0.3763 C   0  0  3  0  0  0  0  0  0  0  0  0
   -4.2761    0.2835   -0.6401 C   0  0  3  0  0  0  0  0  0  0  0  0
   -2.1612   -1.2675   -0.8638 C   0  0  0  0  0  0  0  0  0  0  0  0
   -0.6381   -1.4041   -0.6715 C   0  0  0  0  0  0  0  0  0  0  0  0
    0.1508   -0.2376   -1.3137 C   0  0  3  0  0  0  0  0  0  0  0  0
   -0.4015    1.0333   -0.6350 C   0  0  3  0  0  0  0  0  0  0  0  0
    0.5733    2.1351   -1.0386 C   0  0  0  0  0  0  0  0  0  0  0  0
    1.9184    1.4027   -1.1110 C   0  0  0  0  0  0  0  0  0  0  0  0
    1.6478   -0.1067   -0.9092 C   0  0  3  0  0  0  0  0  0  0  0  0
   -0.0064   -0.2578   -2.8578 C   0  0  0  0  0  0  0  0  0  0  0  0
   -4.6216    0.0973   -2.1381 C   0  0  0  0  0  0  0  0  0  0  0  0
    2.7417   -0.9968   -1.5798 C   0  0  3  0  0  0  0  0  0  0  0  0
    2.4202   -2.4983   -1.4604 C   0  0  0  0  0  0  0  0  0  0  0  0
    4.1443   -0.7743   -0.9494 C   0  0  0  0  0  0  0  0  0  0  0  0
    5.0101    0.2736   -1.6777 C   0  0  0  0  0  0  0  0  0  0  0  0
    6.4239    0.4216   -1.0764 C   0  0  0  0  0  0  0  0  0  0  0  0
    6.6324    1.4891    0.0216 C   0  0  0  0  0  0  0  0  0  0  0  0
    6.4367    2.9157   -0.5126 C   0  0  0  0  0  0  0  0  0  0  0  0
    5.7461    1.2850    1.2558 C   0  0  0  0  0  0  0  0  0  0  0  0
   -8.2921    1.0513    0.7778 O   0  0  0  0  0  0  0  0  0  0  0  0
  1  2  1  0  0  0  0
  1 10  1  0  0  0  0
  2  3  1  0  0  0  0
  3  4  1  0  0  0  0
  3 28  1  0  0  0  0
  4  5  1  0  0  0  0
  5  6  2  0  0  0  0
  5 10  1  0  0  0  0
  6  7  1  0  0  0  0
  7  8  1  0  0  0  0
  8  9  1  0  0  0  0
  8 14  1  0  0  0  0
  9 10  1  0  0  0  0
  9 11  1  0  0  0  0
 10 19  1  0  0  0  0
 11 12  1  0  0  0  0
 12 13  1  0  0  0  0
 13 14  1  0  0  0  0
 13 17  1  0  0  0  0
 13 18  1  0  0  0  0
 14 15  1  0  0  0  0
 15 16  1  0  0  0  0
 16 17  1  0  0  0  0
 17 20  1  0  0  0  0
 20 21  1  0  0  0  0
 20 22  1  0  0  0  0
 22 23  1  0  0  0  0
 23 24  1  0  0  0  0
 24 25  1  0  0  0  0
 25 26  1  0  0  0  0
 25 27  1  0  0  0  0
M  END
$$$$
CLR_2rh1_C_413
  PyMOL2.2          3D                             0

 28 31  0  0  1  0  0  0  0  0999 V2000
   -5.0303   -0.7324    0.2677 C   0  0  0  0  0  0  0  0  0  0  0  0
   -6.5523   -0.5122    0.3565 C   0  0  0  0  0  0  0  0  0  0  0  0
   -6.8417    0.8927    0.8796 C   0  0  3  0  0  0  0  0  0  0  0  0
   -6.1797    1.9608    0.0024 C   0  0  0  0  0  0  0  0  0  0  0  0
   -4.6865    1.7254   -0.1747 C   0  0  0  0  0  0  0  0  0  0  0  0
   -3.8245    2.7411   -0.0013 C   0  0  0  0  0  0  0  0  0  0  0  0
   -2.3273    2.6101   -0.1509 C   0  0  0  0  0  0  0  0  0  0  0  0
   -1.8849    1.3268   -0.8742 C   0  0  3  0  0  0  0  0  0  0  0  0
   -2.7068    0.1171   -0.3551 C   0  0  3  0  0  0  0  0  0  0  0  0
   -4.2524    0.3096   -0.5907 C   0  0  3  0  0  0  0  0  0  0  0  0
   -2.1474   -1.2537   -0.8388 C   0  0  0  0  0  0  0  0  0  0  0  0
   -0.6170   -1.3924   -0.6987 C   0  0  0  0  0  0  0  0  0  0  0  0
    0.1328   -0.2108   -1.3467 C   0  0  3  0  0  0  0  0  0  0  0  0
   -0.3819    1.0644   -0.6560 C   0  0  3  0  0  0  0  0  0  0  0  0
    0.6210    2.1436   -1.0752 C   0  0  0  0  0  0  0  0  0  0  0  0
    1.9599    1.3907   -1.1737 C   0  0  0  0  0  0  0  0  0  0  0  0
    1.6291   -0.1040   -0.9547 C   0  0  3  0  0  0  0  0  0  0  0  0
   -0.0805   -0.2339   -2.8831 C   0  0  0  0  0  0  0  0  0  0  0  0
   -4.6265    0.1254   -2.0824 C   0  0  0  0  0  0  0  0  0  0  0  0
    2.6315   -1.1482   -1.5343 C   0  0  3  0  0  0  0  0  0  0  0  0
    3.7826   -1.3352   -0.5243 C   0  0  0  0  0  0  0  0  0  0  0  0
    3.2370   -0.8129   -2.9197 C   0  0  0  0  0  0  0  0  0  0  0  0
    3.8444   -2.0372   -3.6321 C   0  0  0  0  0  0  0  0  0  0  0  0
    4.3801   -1.7116   -5.0433 C   0  0  0  0  0  0  0  0  0  0  0  0
    5.8727   -1.3344   -5.1734 C   0  0  0  0  0  0  0  0  0  0  0  0
    6.2787   -0.1314   -4.3137 C   0  0  0  0  0  0  0  0  0  0  0  0
    6.7959   -2.5202   -4.8556 C   0  0  0  0  0  0  0  0  0  0  0  0
   -8.2415    1.0765    0.9024 O   0  0  0  0  0  0  0  0  0  0  0  0
  1  2  1  0  0  0  0
  1 10  1  0  0  0  0
  2  3  1  0  0  0  0
  3  4  1  0  0  0  0
  3 28  1  0  0  0  0
  4  5  1  0  0  0  0
  5  6  2  0  0  0  0
  5 10  1  0  0  0  0
  6  7  1  0  0  0  0
  7  8  1  0  0  0  0
  8  9  1  0  0  0  0
  8 14  1  0  0  0  0
  9 10  1  0  0  0  0
  9 11  1  0  0  0  0
 10 19  1  0  0  0  0
 11 12  1  0  0  0  0
 12 13  1  0  0  0  0
 13 14  1  0  0  0  0
 13 17  1  0  0  0  0
 13 18  1  0  0  0  0
 14 15  1  0  0  0  0
 15 16  1  0  0  0  0
 16 17  1  0  0  0  0
 17 20  1  0  0  0  0
 20 21  1  0  0  0  0
 20 22  1  0  0  0  0
 22 23  1  0  0  0  0
 23 24  1  0  0  0  0
 24 25  1  0  0  0  0
 25 26  1  0  0  0  0
 25 27  1  0  0  0  0
M  END
$$$$
CLR_2rh1_C_413
  PyMOL2.2          3D                             0

 28 31  0  0  1  0  0  0  0  0999 V2000
   -5.0485   -0.7682    0.1995 C   0  0  0  0  0  0  0  0  0  0  0  0
   -6.5731   -0.5601    0.2625 C   0  0  0  0  0  0  0  0  0  0  0  0
   -6.8815    0.8420    0.7840 C   0  0  3  0  0  0  0  0  0  0  0  0
   -6.2125    1.9175   -0.0782 C   0  0  0  0  0  0  0  0  0  0  0  0
   -4.7149    1.6933   -0.2317 C   0  0  0  0  0  0  0  0  0  0  0  0
   -3.8639    2.7152   -0.0411 C   0  0  0  0  0  0  0  0  0  0  0  0
   -2.3629    2.5954   -0.1650 C   0  0  0  0  0  0  0  0  0  0  0  0
   -1.8998    1.3171   -0.8843 C   0  0  3  0  0  0  0  0  0  0  0  0
   -2.7209    0.0998   -0.3822 C   0  0  3  0  0  0  0  0  0  0  0  0
   -4.2645    0.2817   -0.6430 C   0  0  3  0  0  0  0  0  0  0  0  0
   -2.1435   -1.2656   -0.8591 C   0  0  0  0  0  0  0  0  0  0  0  0
   -0.6142   -1.3929   -0.6976 C   0  0  0  0  0  0  0  0  0  0  0  0
    0.1359   -0.2038   -1.3307 C   0  0  3  0  0  0  0  0  0  0  0  0
   -0.3985    1.0651   -0.6437 C   0  0  3  0  0  0  0  0  0  0  0  0
    0.6026    2.1533   -1.0436 C   0  0  0  0  0  0  0  0  0  0  0  0
    1.9485    1.4112   -1.1182 C   0  0  0  0  0  0  0  0  0  0  0  0
    1.6259   -0.0874   -0.9158 C   0  0  3  0  0  0  0  0  0  0  0  0
   -0.0578   -0.2222   -2.8697 C   0  0  0  0  0  0  0  0  0  0  0  0
   -4.6112    0.0979   -2.1408 C   0  0  0  0  0  0  0  0  0  0  0  0
    2.6441   -1.1178   -1.4893 C   0  0  3  0  0  0  0  0  0  0  0  0
    3.7899   -1.2935   -0.4709 C   0  0  0  0  0  0  0  0  0  0  0  0
    3.2562   -0.7701   -2.8678 C   0  0  0  0  0  0  0  0  0  0  0  0
    3.7962   -1.9975   -3.6213 C   0  0  0  0  0  0  0  0  0  0  0  0
    4.5770   -1.6723   -4.9107 C   0  0  0  0  0  0  0  0  0  0  0  0
    3.8519   -0.9969   -6.0981 C   0  0  0  0  0  0  0  0  0  0  0  0
    2.4509   -1.5694   -6.3554 C   0  0  0  0  0  0  0  0  0  0  0  0
    3.7861    0.5334   -5.9863 C   0  0  0  0  0  0  0  0  0  0  0  0
   -8.2826    1.0154    0.7840 O   0  0  0  0  0  0  0  0  0  0  0  0
  1  2  1  0  0  0  0
  1 10  1  0  0  0  0
  2  3  1  0  0  0  0
  3  4  1  0  0  0  0
  3 28  1  0  0  0  0
  4  5  1  0  0  0  0
  5  6  2  0  0  0  0
  5 10  1  0  0  0  0
  6  7  1  0  0  0  0
  7  8  1  0  0  0  0
  8  9  1  0  0  0  0
  8 14  1  0  0  0  0
  9 10  1  0  0  0  0
  9 11  1  0  0  0  0
 10 19  1  0  0  0  0
 11 12  1  0  0  0  0
 12 13  1  0  0  0  0
 13 14  1  0  0  0  0
 13 17  1  0  0  0  0
 13 18  1  0  0  0  0
 14 15  1  0  0  0  0
 15 16  1  0  0  0  0
 16 17  1  0  0  0  0
 17 20  1  0  0  0  0
 20 21  1  0  0  0  0
 20 22  1  0  0  0  0
 22 23  1  0  0  0  0
 23 24  1  0  0  0  0
 24 25  1  0  0  0  0
 25 26  1  0  0  0  0
 25 27  1  0  0  0  0
M  END
$$$$
CLR_2rh1_C_413
  PyMOL2.2          3D                             0

 28 31  0  0  1  0  0  0  0  0999 V2000
   -5.0688   -0.7567    0.2060 C   0  0  0  0  0  0  0  0  0  0  0  0
   -6.5914   -0.5384    0.2667 C   0  0  0  0  0  0  0  0  0  0  0  0
   -6.8918    0.8673    0.7817 C   0  0  3  0  0  0  0  0  0  0  0  0
   -6.2137    1.9352   -0.0852 C   0  0  0  0  0  0  0  0  0  0  0  0
   -4.7178    1.6996   -0.2350 C   0  0  0  0  0  0  0  0  0  0  0  0
   -3.8590    2.7147   -0.0454 C   0  0  0  0  0  0  0  0  0  0  0  0
   -2.3593    2.5826   -0.1673 C   0  0  0  0  0  0  0  0  0  0  0  0
   -1.9024    1.2973   -0.8794 C   0  0  3  0  0  0  0  0  0  0  0  0
   -2.7352    0.0922   -0.3761 C   0  0  3  0  0  0  0  0  0  0  0  0
   -4.2763    0.2830   -0.6400 C   0  0  3  0  0  0  0  0  0  0  0  0
   -2.1608   -1.2659   -0.8641 C   0  0  0  0  0  0  0  0  0  0  0  0
   -0.6376   -1.4023   -0.6676 C   0  0  0  0  0  0  0  0  0  0  0  0
    0.1523   -0.2382   -1.3102 C   0  0  3  0  0  0  0  0  0  0  0  0
   -0.4013    1.0348   -0.6363 C   0  0  3  0  0  0  0  0  0  0  0  0
    0.5718    2.1324   -1.0514 C   0  0  0  0  0  0  0  0  0  0  0  0
    1.9195    1.4028   -1.0812 C   0  0  0  0  0  0  0  0  0  0  0  0
    1.6513   -0.1103   -0.9085 C   0  0  3  0  0  0  0  0  0  0  0  0
   -0.0046   -0.2596   -2.8550 C   0  0  0  0  0  0  0  0  0  0  0  0
   -4.6230    0.0951   -2.1382 C   0  0  0  0  0  0  0  0  0  0  0  0
    2.7371   -0.9942   -1.6015 C   0  0  3  0  0  0  0  0  0  0  0  0
    2.4182   -2.4963   -1.4756 C   0  0  0  0  0  0  0  0  0  0  0  0
    4.1581   -0.7893   -1.0058 C   0  0  0  0  0  0  0  0  0  0  0  0
    4.9605    0.3814   -1.6038 C   0  0  0  0  0  0  0  0  0  0  0  0
    6.4796    0.3241   -1.3392 C   0  0  0  0  0  0  0  0  0  0  0  0
    7.0015    0.4390    0.1120 C   0  0  0  0  0  0  0  0  0  0  0  0
    6.2960    1.5389    0.9174 C   0  0  0  0  0  0  0  0  0  0  0  0
    6.9587   -0.8868    0.8847 C   0  0  0  0  0  0  0  0  0  0  0  0
   -8.2922    1.0510    0.7784 O   0  0  0  0  0  0  0  0  0  0  0  0
  1  2  1  0  0  0  0
  1 10  1  0  0  0  0
  2  3  1  0  0  0  0
  3  4  1  0  0  0  0
  3 28  1  0  0  0  0
  4  5  1  0  0  0  0
  5  6  2  0  0  0  0
  5 10  1  0  0  0  0
  6  7  1  0  0  0  0
  7  8  1  0  0  0  0
  8  9  1  0  0  0  0
  8 14  1  0  0  0  0
  9 10  1  0  0  0  0
  9 11  1  0  0  0  0
 10 19  1  0  0  0  0
 11 12  1  0  0  0  0
 12 13  1  0  0  0  0
 13 14  1  0  0  0  0
 13 17  1  0  0  0  0
 13 18  1  0  0  0  0
 14 15  1  0  0  0  0
 15 16  1  0  0  0  0
 16 17  1  0  0  0  0
 17 20  1  0  0  0  0
 20 21  1  0  0  0  0
 20 22  1  0  0  0  0
 22 23  1  0  0  0  0
 23 24  1  0  0  0  0
 24 25  1  0  0  0  0
 25 26  1  0  0  0  0
 25 27  1  0  0  0  0
M  END
$$$$
CLR_2rh1_C_413
  PyMOL2.2          3D                             0

 28 31  0  0  1  0  0  0  0  0999 V2000
   -5.0463   -0.7723    0.1924 C   0  0  0  0  0  0  0  0  0  0  0  0
   -6.5697   -0.5641    0.2704 C   0  0  0  0  0  0  0  0  0  0  0  0
   -6.8745    0.8335    0.8075 C   0  0  3  0  0  0  0  0  0  0  0  0
   -6.2112    1.9157   -0.0507 C   0  0  0  0  0  0  0  0  0  0  0  0
   -4.7151    1.6926   -0.2152 C   0  0  0  0  0  0  0  0  0  0  0  0
   -3.8619    2.7110   -0.0155 C   0  0  0  0  0  0  0  0  0  0  0  0
   -2.3623    2.5917   -0.1494 C   0  0  0  0  0  0  0  0  0  0  0  0
   -1.9066    1.3248   -0.8947 C   0  0  3  0  0  0  0  0  0  0  0  0
   -2.7228    0.1007   -0.4025 C   0  0  3  0  0  0  0  0  0  0  0  0
   -4.2688    0.2857   -0.6471 C   0  0  3  0  0  0  0  0  0  0  0  0
   -2.1479   -1.2555   -0.9072 C   0  0  0  0  0  0  0  0  0  0  0  0
   -0.6220   -1.3903   -0.7183 C   0  0  0  0  0  0  0  0  0  0  0  0
    0.1377   -0.2088   -1.3507 C   0  0  3  0  0  0  0  0  0  0  0  0
   -0.4007    1.0696   -0.6776 C   0  0  3  0  0  0  0  0  0  0  0  0
    0.5937    2.1506   -1.1098 C   0  0  0  0  0  0  0  0  0  0  0  0
    1.9451    1.4152   -1.1259 C   0  0  0  0  0  0  0  0  0  0  0  0
    1.6233   -0.0833   -0.9192 C   0  0  3  0  0  0  0  0  0  0  0  0
   -0.0622   -0.2219   -2.8899 C   0  0  0  0  0  0  0  0  0  0  0  0
   -4.6284    0.1168   -2.1432 C   0  0  0  0  0  0  0  0  0  0  0  0
    2.6899   -1.1400   -1.3414 C   0  0  3  0  0  0  0  0  0  0  0  0
    4.0036   -0.8540   -0.5849 C   0  0  0  0  0  0  0  0  0  0  0  0
    3.0268   -1.4276   -2.8275 C   0  0  0  0  0  0  0  0  0  0  0  0
    3.5704   -0.2759   -3.6919 C   0  0  0  0  0  0  0  0  0  0  0  0
    4.0426   -0.8073   -5.0555 C   0  0  0  0  0  0  0  0  0  0  0  0
    4.4592    0.3083   -6.0334 C   0  0  0  0  0  0  0  0  0  0  0  0
    5.6810    1.0984   -5.5405 C   0  0  0  0  0  0  0  0  0  0  0  0
    4.7898   -0.3133   -7.3963 C   0  0  0  0  0  0  0  0  0  0  0  0
   -8.2755    1.0074    0.8197 O   0  0  0  0  0  0  0  0  0  0  0  0
  1  2  1  0  0  0  0
  1 10  1  0  0  0  0
  2  3  1  0  0  0  0
  3  4  1  0  0  0  0
  3 28  1  0  0  0  0
  4  5  1  0  0  0  0
  5  6  2  0  0  0  0
  5 10  1  0  0  0  0
  6  7  1  0  0  0  0
  7  8  1  0  0  0  0
  8  9  1  0  0  0  0
  8 14  1  0  0  0  0
  9 10  1  0  0  0  0
  9 11  1  0  0  0  0
 10 19  1  0  0  0  0
 11 12  1  0  0  0  0
 12 13  1  0  0  0  0
 13 14  1  0  0  0  0
 13 17  1  0  0  0  0
 13 18  1  0  0  0  0
 14 15  1  0  0  0  0
 15 16  1  0  0  0  0
 16 17  1  0  0  0  0
 17 20  1  0  0  0  0
 20 21  1  0  0  0  0
 20 22  1  0  0  0  0
 22 23  1  0  0  0  0
 23 24  1  0  0  0  0
 24 25  1  0  0  0  0
 25 26  1  0  0  0  0
 25 27  1  0  0  0  0
M  END
$$$$
CLR_2rh1_C_413
  PyMOL2.2          3D                             0

 28 31  0  0  1  0  0  0  0  0999 V2000
   -5.0278   -0.7330    0.2681 C   0  0  0  0  0  0  0  0  0  0  0  0
   -6.5491   -0.5161    0.3545 C   0  0  0  0  0  0  0  0  0  0  0  0
   -6.8414    0.8893    0.8783 C   0  0  3  0  0  0  0  0  0  0  0  0
   -6.1802    1.9576    0.0016 C   0  0  0  0  0  0  0  0  0  0  0  0
   -4.6860    1.7248   -0.1756 C   0  0  0  0  0  0  0  0  0  0  0  0
   -3.8265    2.7422   -0.0025 C   0  0  0  0  0  0  0  0  0  0  0  0
   -2.3290    2.6132   -0.1516 C   0  0  0  0  0  0  0  0  0  0  0  0
   -1.8840    1.3295   -0.8727 C   0  0  3  0  0  0  0  0  0  0  0  0
   -2.7043    0.1188   -0.3538 C   0  0  3  0  0  0  0  0  0  0  0  0
   -4.2507    0.3090   -0.5900 C   0  0  3  0  0  0  0  0  0  0  0  0
   -2.1426   -1.2526   -0.8346 C   0  0  0  0  0  0  0  0  0  0  0  0
   -0.6113   -1.3892   -0.7015 C   0  0  0  0  0  0  0  0  0  0  0  0
    0.1341   -0.2039   -1.3467 C   0  0  3  0  0  0  0  0  0  0  0  0
   -0.3805    1.0693   -0.6524 C   0  0  3  0  0  0  0  0  0  0  0  0
    0.6230    2.1512   -1.0653 C   0  0  0  0  0  0  0  0  0  0  0  0
    1.9590    1.3951   -1.1924 C   0  0  0  0  0  0  0  0  0  0  0  0
    1.6315   -0.0975   -0.9624 C   0  0  3  0  0  0  0  0  0  0  0  0
   -0.0794   -0.2130   -2.8849 C   0  0  0  0  0  0  0  0  0  0  0  0
   -4.6228    0.1234   -2.0817 C   0  0  0  0  0  0  0  0  0  0  0  0
    2.6020   -1.1927   -1.5177 C   0  0  3  0  0  0  0  0  0  0  0  0
    3.3253   -1.8588   -0.3301 C   0  0  0  0  0  0  0  0  0  0  0  0
    3.7024   -0.7620   -2.5194 C   0  0  0  0  0  0  0  0  0  0  0  0
    3.1986   -0.5224   -3.9524 C   0  0  0  0  0  0  0  0  0  0  0  0
    4.3735   -0.1969   -4.8918 C   0  0  0  0  0  0  0  0  0  0  0  0
    3.9927    0.0952   -6.3578 C   0  0  0  0  0  0  0  0  0  0  0  0
    3.3111   -1.1018   -7.0337 C   0  0  0  0  0  0  0  0  0  0  0  0
    3.1020    1.3382   -6.4950 C   0  0  0  0  0  0  0  0  0  0  0  0
   -8.2408    1.0712    0.9010 O   0  0  0  0  0  0  0  0  0  0  0  0
  1  2  1  0  0  0  0
  1 10  1  0  0  0  0
  2  3  1  0  0  0  0
  3  4  1  0  0  0  0
  3 28  1  0  0  0  0
  4  5  1  0  0  0  0
  5  6  2  0  0  0  0
  5 10  1  0  0  0  0
  6  7  1  0  0  0  0
  7  8  1  0  0  0  0
  8  9  1  0  0  0  0
  8 14  1  0  0  0  0
  9 10  1  0  0  0  0
  9 11  1  0  0  0  0
 10 19  1  0  0  0  0
 11 12  1  0  0  0  0
 12 13  1  0  0  0  0
 13 14  1  0  0  0  0
 13 17  1  0  0  0  0
 13 18  1  0  0  0  0
 14 15  1  0  0  0  0
 15 16  1  0  0  0  0
 16 17  1  0  0  0  0
 17 20  1  0  0  0  0
 20 21  1  0  0  0  0
 20 22  1  0  0  0  0
 22 23  1  0  0  0  0
 23 24  1  0  0  0  0
 24 25  1  0  0  0  0
 25 26  1  0  0  0  0
 25 27  1  0  0  0  0
M  END
$$$$
CLR_2rh1_C_413
  PyMOL2.2          3D                             0

 28 31  0  0  1  0  0  0  0  0999 V2000
   -5.0464   -0.7699    0.1973 C   0  0  0  0  0  0  0  0  0  0  0  0
   -6.5712   -0.5635    0.2698 C   0  0  0  0  0  0  0  0  0  0  0  0
   -6.8798    0.8357    0.7994 C   0  0  3  0  0  0  0  0  0  0  0  0
   -6.2109    1.9169   -0.0542 C   0  0  0  0  0  0  0  0  0  0  0  0
   -4.7140    1.6922   -0.2157 C   0  0  0  0  0  0  0  0  0  0  0  0
   -3.8617    2.7101   -0.0144 C   0  0  0  0  0  0  0  0  0  0  0  0
   -2.3607    2.5901   -0.1457 C   0  0  0  0  0  0  0  0  0  0  0  0
   -1.9062    1.3237   -0.8915 C   0  0  3  0  0  0  0  0  0  0  0  0
   -2.7225    0.1000   -0.4001 C   0  0  3  0  0  0  0  0  0  0  0  0
   -4.2678    0.2842   -0.6444 C   0  0  3  0  0  0  0  0  0  0  0  0
   -2.1465   -1.2559   -0.9050 C   0  0  0  0  0  0  0  0  0  0  0  0
   -0.6213   -1.3916   -0.7197 C   0  0  0  0  0  0  0  0  0  0  0  0
    0.1371   -0.2079   -1.3528 C   0  0  3  0  0  0  0  0  0  0  0  0
   -0.3998    1.0689   -0.6759 C   0  0  3  0  0  0  0  0  0  0  0  0
    0.5933    2.1517   -1.1091 C   0  0  0  0  0  0  0  0  0  0  0  0
    1.9449    1.4156   -1.1271 C   0  0  0  0  0  0  0  0  0  0  0  0
    1.6235   -0.0840   -0.9224 C   0  0  3  0  0  0  0  0  0  0  0  0
   -0.0655   -0.2190   -2.8910 C   0  0  0  0  0  0  0  0  0  0  0  0
   -4.6264    0.1136   -2.1414 C   0  0  0  0  0  0  0  0  0  0  0  0
    2.6914   -1.1394   -1.3439 C   0  0  3  0  0  0  0  0  0  0  0  0
    4.0090   -0.8432   -0.6000 C   0  0  0  0  0  0  0  0  0  0  0  0
    3.0185   -1.4393   -2.8304 C   0  0  0  0  0  0  0  0  0  0  0  0
    3.5510   -0.2914   -3.7059 C   0  0  0  0  0  0  0  0  0  0  0  0
    3.9836   -0.8219   -5.0832 C   0  0  0  0  0  0  0  0  0  0  0  0
    4.6083    0.2596   -5.9858 C   0  0  0  0  0  0  0  0  0  0  0  0
    5.1251   -0.3960   -7.2725 C   0  0  0  0  0  0  0  0  0  0  0  0
    3.6106    1.3654   -6.3616 C   0  0  0  0  0  0  0  0  0  0  0  0
   -8.2794    1.0191    0.7980 O   0  0  0  0  0  0  0  0  0  0  0  0
  1  2  1  0  0  0  0
  1 10  1  0  0  0  0
  2  3  1  0  0  0  0
  3  4  1  0  0  0  0
  3 28  1  0  0  0  0
  4  5  1  0  0  0  0
  5  6  2  0  0  0  0
  5 10  1  0  0  0  0
  6  7  1  0  0  0  0
  7  8  1  0  0  0  0
  8  9  1  0  0  0  0
  8 14  1  0  0  0  0
  9 10  1  0  0  0  0
  9 11  1  0  0  0  0
 10 19  1  0  0  0  0
 11 12  1  0  0  0  0
 12 13  1  0  0  0  0
 13 14  1  0  0  0  0
 13 17  1  0  0  0  0
 13 18  1  0  0  0  0
 14 15  1  0  0  0  0
 15 16  1  0  0  0  0
 16 17  1  0  0  0  0
 17 20  1  0  0  0  0
 20 21  1  0  0  0  0
 20 22  1  0  0  0  0
 22 23  1  0  0  0  0
 23 24  1  0  0  0  0
 24 25  1  0  0  0  0
 25 26  1  0  0  0  0
 25 27  1  0  0  0  0
M  END
$$$$
CLR_2rh1_C_413
  PyMOL2.2          3D                             0

 28 31  0  0  1  0  0  0  0  0999 V2000
   -5.0264   -0.7300    0.2746 C   0  0  0  0  0  0  0  0  0  0  0  0
   -6.5494   -0.5200    0.3526 C   0  0  0  0  0  0  0  0  0  0  0  0
   -6.8480    0.8864    0.8719 C   0  0  3  0  0  0  0  0  0  0  0  0
   -6.1782    1.9623    0.0106 C   0  0  0  0  0  0  0  0  0  0  0  0
   -4.6854    1.7246   -0.1710 C   0  0  0  0  0  0  0  0  0  0  0  0
   -3.8247    2.7414    0.0000 C   0  0  0  0  0  0  0  0  0  0  0  0
   -2.3271    2.6133   -0.1496 C   0  0  0  0  0  0  0  0  0  0  0  0
   -1.8834    1.3292   -0.8715 C   0  0  3  0  0  0  0  0  0  0  0  0
   -2.7036    0.1186   -0.3518 C   0  0  3  0  0  0  0  0  0  0  0  0
   -4.2499    0.3100   -0.5866 C   0  0  3  0  0  0  0  0  0  0  0  0
   -2.1424   -1.2513   -0.8352 C   0  0  0  0  0  0  0  0  0  0  0  0
   -0.6112   -1.3880   -0.6998 C   0  0  0  0  0  0  0  0  0  0  0  0
    0.1349   -0.2048   -1.3464 C   0  0  3  0  0  0  0  0  0  0  0  0
   -0.3798    1.0697   -0.6529 C   0  0  3  0  0  0  0  0  0  0  0  0
    0.6227    2.1504   -1.0687 C   0  0  0  0  0  0  0  0  0  0  0  0
    1.9582    1.3947   -1.1958 C   0  0  0  0  0  0  0  0  0  0  0  0
    1.6323   -0.0985   -0.9640 C   0  0  3  0  0  0  0  0  0  0  0  0
   -0.0786   -0.2173   -2.8839 C   0  0  0  0  0  0  0  0  0  0  0  0
   -4.6240    0.1242   -2.0772 C   0  0  0  0  0  0  0  0  0  0  0  0
    2.6035   -1.1897   -1.5236 C   0  0  3  0  0  0  0  0  0  0  0  0
    3.3460   -1.8408   -0.3385 C   0  0  0  0  0  0  0  0  0  0  0  0
    3.6918   -0.7608   -2.5404 C   0  0  0  0  0  0  0  0  0  0  0  0
    3.1782   -0.5311   -3.9735 C   0  0  0  0  0  0  0  0  0  0  0  0
    4.3137   -0.3679   -5.0012 C   0  0  0  0  0  0  0  0  0  0  0  0
    5.2769    0.8144   -4.7658 C   0  0  0  0  0  0  0  0  0  0  0  0
    6.3621    0.8007   -5.8497 C   0  0  0  0  0  0  0  0  0  0  0  0
    4.5591    2.1711   -4.8015 C   0  0  0  0  0  0  0  0  0  0  0  0
   -8.2462    1.0713    0.8861 O   0  0  0  0  0  0  0  0  0  0  0  0
  1  2  1  0  0  0  0
  1 10  1  0  0  0  0
  2  3  1  0  0  0  0
  3  4  1  0  0  0  0
  3 28  1  0  0  0  0
  4  5  1  0  0  0  0
  5  6  2  0  0  0  0
  5 10  1  0  0  0  0
  6  7  1  0  0  0  0
  7  8  1  0  0  0  0
  8  9  1  0  0  0  0
  8 14  1  0  0  0  0
  9 10  1  0  0  0  0
  9 11  1  0  0  0  0
 10 19  1  0  0  0  0
 11 12  1  0  0  0  0
 12 13  1  0  0  0  0
 13 14  1  0  0  0  0
 13 17  1  0  0  0  0
 13 18  1  0  0  0  0
 14 15  1  0  0  0  0
 15 16  1  0  0  0  0
 16 17  1  0  0  0  0
 17 20  1  0  0  0  0
 20 21  1  0  0  0  0
 20 22  1  0  0  0  0
 22 23  1  0  0  0  0
 23 24  1  0  0  0  0
 24 25  1  0  0  0  0
 25 26  1  0  0  0  0
 25 27  1  0  0  0  0
M  END
$$$$
CLR_2rh1_C_413
  PyMOL2.2          3D                             0

 28 31  0  0  1  0  0  0  0  0999 V2000
   -5.0983   -0.8164    0.1072 C   0  0  0  0  0  0  0  0  0  0  0  0
   -6.6305   -0.6063    0.1079 C   0  0  0  0  0  0  0  0  0  0  0  0
   -7.0801    0.8432    0.3691 C   0  0  3  0  0  0  0  0  0  0  0  0
   -5.9653    1.7300    0.9366 C   0  0  0  0  0  0  0  0  0  0  0  0
   -4.6329    1.6409    0.2029 C   0  0  0  0  0  0  0  0  0  0  0  0
   -3.7689    2.6663    0.2885 C   0  0  0  0  0  0  0  0  0  0  0  0
   -2.3460    2.6280   -0.2351 C   0  0  0  0  0  0  0  0  0  0  0  0
   -1.9089    1.2912   -0.8797 C   0  0  3  0  0  0  0  0  0  0  0  0
   -2.7314    0.1013   -0.3163 C   0  0  3  0  0  0  0  0  0  0  0  0
   -4.2706    0.3381   -0.5188 C   0  0  3  0  0  0  0  0  0  0  0  0
   -2.2006   -1.2718   -0.8120 C   0  0  0  0  0  0  0  0  0  0  0  0
   -0.6706   -1.4247   -0.6767 C   0  0  0  0  0  0  0  0  0  0  0  0
    0.1053   -0.2689   -1.3483 C   0  0  3  0  0  0  0  0  0  0  0  0
   -0.4054    1.0201   -0.6723 C   0  0  3  0  0  0  0  0  0  0  0  0
    0.5734    2.0988   -1.1335 C   0  0  0  0  0  0  0  0  0  0  0  0
    1.9103    1.3500   -1.2014 C   0  0  0  0  0  0  0  0  0  0  0  0
    1.6130   -0.1541   -0.9879 C   0  0  3  0  0  0  0  0  0  0  0  0
   -0.0961   -0.3180   -2.8871 C   0  0  0  0  0  0  0  0  0  0  0  0
   -4.6200    0.4683   -2.0252 C   0  0  0  0  0  0  0  0  0  0  0  0
    2.6604   -1.0586   -1.7036 C   0  0  3  0  0  0  0  0  0  0  0  0
    2.3971   -2.5588   -1.4904 C   0  0  0  0  0  0  0  0  0  0  0  0
    4.1225   -0.7416   -1.2995 C   0  0  0  0  0  0  0  0  0  0  0  0
    4.4581   -0.9199    0.1934 C   0  0  0  0  0  0  0  0  0  0  0  0
    5.9393   -0.6003    0.4527 C   0  0  0  0  0  0  0  0  0  0  0  0
    6.3780   -0.8676    1.9050 C   0  0  0  0  0  0  0  0  0  0  0  0
    7.8919   -0.6485    2.0221 C   0  0  0  0  0  0  0  0  0  0  0  0
    5.6672    0.0478    2.9138 C   0  0  0  0  0  0  0  0  0  0  0  0
   -7.5511    1.4189   -0.8260 O   0  0  0  0  0  0  0  0  0  0  0  0
  1  2  1  0  0  0  0
  1 10  1  0  0  0  0
  2  3  1  0  0  0  0
  3  4  1  0  0  0  0
  3 28  1  0  0  0  0
  4  5  1  0  0  0  0
  5  6  2  0  0  0  0
  5 10  1  0  0  0  0
  6  7  1  0  0  0  0
  7  8  1  0  0  0  0
  8  9  1  0  0  0  0
  8 14  1  0  0  0  0
  9 10  1  0  0  0  0
  9 11  1  0  0  0  0
 10 19  1  0  0  0  0
 11 12  1  0  0  0  0
 12 13  1  0  0  0  0
 13 14  1  0  0  0  0
 13 17  1  0  0  0  0
 13 18  1  0  0  0  0
 14 15  1  0  0  0  0
 15 16  1  0  0  0  0
 16 17  1  0  0  0  0
 17 20  1  0  0  0  0
 20 21  1  0  0  0  0
 20 22  1  0  0  0  0
 22 23  1  0  0  0  0
 23 24  1  0  0  0  0
 24 25  1  0  0  0  0
 25 26  1  0  0  0  0
 25 27  1  0  0  0  0
M  END
$$$$
CLR_2rh1_C_413
  PyMOL2.2          3D                             0

 28 31  0  0  1  0  0  0  0  0999 V2000
   -5.0634   -0.7618    0.2016 C   0  0  0  0  0  0  0  0  0  0  0  0
   -6.5863   -0.5440    0.2735 C   0  0  0  0  0  0  0  0  0  0  0  0
   -6.8834    0.8577    0.8007 C   0  0  3  0  0  0  0  0  0  0  0  0
   -6.2120    1.9315   -0.0622 C   0  0  0  0  0  0  0  0  0  0  0  0
   -4.7170    1.6980   -0.2231 C   0  0  0  0  0  0  0  0  0  0  0  0
   -3.8577    2.7133   -0.0312 C   0  0  0  0  0  0  0  0  0  0  0  0
   -2.3581    2.5828   -0.1623 C   0  0  0  0  0  0  0  0  0  0  0  0
   -1.9065    1.3052   -0.8910 C   0  0  3  0  0  0  0  0  0  0  0  0
   -2.7339    0.0939   -0.3916 C   0  0  3  0  0  0  0  0  0  0  0  0
   -4.2775    0.2861   -0.6429 C   0  0  3  0  0  0  0  0  0  0  0  0
   -2.1632   -1.2638   -0.8914 C   0  0  0  0  0  0  0  0  0  0  0  0
   -0.6398   -1.4056   -0.7022 C   0  0  0  0  0  0  0  0  0  0  0  0
    0.1421   -0.2341   -1.3377 C   0  0  3  0  0  0  0  0  0  0  0  0
   -0.4040    1.0411   -0.6614 C   0  0  3  0  0  0  0  0  0  0  0  0
    0.5793    2.1346   -1.0803 C   0  0  0  0  0  0  0  0  0  0  0  0
    1.9328    1.4109   -1.0892 C   0  0  0  0  0  0  0  0  0  0  0  0
    1.6362   -0.0984   -0.9218 C   0  0  3  0  0  0  0  0  0  0  0  0
   -0.0372   -0.2601   -2.8765 C   0  0  0  0  0  0  0  0  0  0  0  0
   -4.6334    0.1086   -2.1394 C   0  0  0  0  0  0  0  0  0  0  0  0
    2.7722   -1.0241   -1.4594 C   0  0  3  0  0  0  0  0  0  0  0  0
    3.1053   -0.9434   -2.9656 C   0  0  0  0  0  0  0  0  0  0  0  0
    2.5181   -2.4946   -1.0613 C   0  0  0  0  0  0  0  0  0  0  0  0
    3.7698   -3.3894   -1.1438 C   0  0  0  0  0  0  0  0  0  0  0  0
    3.5011   -4.8337   -0.6773 C   0  0  0  0  0  0  0  0  0  0  0  0
    3.2076   -5.8411   -1.8086 C   0  0  0  0  0  0  0  0  0  0  0  0
    3.0284   -7.2373   -1.1989 C   0  0  0  0  0  0  0  0  0  0  0  0
    1.9565   -5.4980   -2.6283 C   0  0  0  0  0  0  0  0  0  0  0  0
   -8.2839    1.0397    0.8081 O   0  0  0  0  0  0  0  0  0  0  0  0
  1  2  1  0  0  0  0
  1 10  1  0  0  0  0
  2  3  1  0  0  0  0
  3  4  1  0  0  0  0
  3 28  1  0  0  0  0
  4  5  1  0  0  0  0
  5  6  2  0  0  0  0
  5 10  1  0  0  0  0
  6  7  1  0  0  0  0
  7  8  1  0  0  0  0
  8  9  1  0  0  0  0
  8 14  1  0  0  0  0
  9 10  1  0  0  0  0
  9 11  1  0  0  0  0
 10 19  1  0  0  0  0
 11 12  1  0  0  0  0
 12 13  1  0  0  0  0
 13 14  1  0  0  0  0
 13 17  1  0  0  0  0
 13 18  1  0  0  0  0
 14 15  1  0  0  0  0
 15 16  1  0  0  0  0
 16 17  1  0  0  0  0
 17 20  1  0  0  0  0
 20 21  1  0  0  0  0
 20 22  1  0  0  0  0
 22 23  1  0  0  0  0
 23 24  1  0  0  0  0
 24 25  1  0  0  0  0
 25 26  1  0  0  0  0
 25 27  1  0  0  0  0
M  END
$$$$
CLR_2rh1_C_413
  PyMOL2.2          3D                             0

 28 31  0  0  1  0  0  0  0  0999 V2000
   -5.0691   -0.7577    0.2047 C   0  0  0  0  0  0  0  0  0  0  0  0
   -6.5915   -0.5384    0.2633 C   0  0  0  0  0  0  0  0  0  0  0  0
   -6.8922    0.8668    0.7792 C   0  0  3  0  0  0  0  0  0  0  0  0
   -6.2125    1.9342   -0.0845 C   0  0  0  0  0  0  0  0  0  0  0  0
   -4.7174    1.6992   -0.2334 C   0  0  0  0  0  0  0  0  0  0  0  0
   -3.8587    2.7143   -0.0437 C   0  0  0  0  0  0  0  0  0  0  0  0
   -2.3584    2.5822   -0.1649 C   0  0  0  0  0  0  0  0  0  0  0  0
   -1.9012    1.2968   -0.8783 C   0  0  3  0  0  0  0  0  0  0  0  0
   -2.7345    0.0919   -0.3750 C   0  0  3  0  0  0  0  0  0  0  0  0
   -4.2751    0.2834   -0.6404 C   0  0  3  0  0  0  0  0  0  0  0  0
   -2.1609   -1.2675   -0.8609 C   0  0  0  0  0  0  0  0  0  0  0  0
   -0.6368   -1.4052   -0.6706 C   0  0  0  0  0  0  0  0  0  0  0  0
    0.1485   -0.2378   -1.3126 C   0  0  3  0  0  0  0  0  0  0  0  0
   -0.4009    1.0334   -0.6335 C   0  0  3  0  0  0  0  0  0  0  0  0
    0.5768    2.1349   -1.0347 C   0  0  0  0  0  0  0  0  0  0  0  0
    1.9213    1.4020   -1.1156 C   0  0  0  0  0  0  0  0  0  0  0  0
    1.6451   -0.1060   -0.9091 C   0  0  3  0  0  0  0  0  0  0  0  0
   -0.0097   -0.2585   -2.8573 C   0  0  0  0  0  0  0  0  0  0  0  0
   -4.6209    0.0974   -2.1388 C   0  0  0  0  0  0  0  0  0  0  0  0
    2.7373   -0.9938   -1.5819 C   0  0  3  0  0  0  0  0  0  0  0  0
    2.4352   -2.4983   -1.4520 C   0  0  0  0  0  0  0  0  0  0  0  0
    4.1398   -0.7358   -0.9642 C   0  0  0  0  0  0  0  0  0  0  0  0
    5.0399    0.1518   -1.8395 C   0  0  0  0  0  0  0  0  0  0  0  0
    6.3690    0.5669   -1.1797 C   0  0  0  0  0  0  0  0  0  0  0  0
    7.3221   -0.5967   -0.8249 C   0  0  0  0  0  0  0  0  0  0  0  0
    8.7799   -0.1618   -1.0296 C   0  0  0  0  0  0  0  0  0  0  0  0
    7.1704   -1.0442    0.6380 C   0  0  0  0  0  0  0  0  0  0  0  0
   -8.2921    1.0508    0.7753 O   0  0  0  0  0  0  0  0  0  0  0  0
  1  2  1  0  0  0  0
  1 10  1  0  0  0  0
  2  3  1  0  0  0  0
  3  4  1  0  0  0  0
  3 28  1  0  0  0  0
  4  5  1  0  0  0  0
  5  6  2  0  0  0  0
  5 10  1  0  0  0  0
  6  7  1  0  0  0  0
  7  8  1  0  0  0  0
  8  9  1  0  0  0  0
  8 14  1  0  0  0  0
  9 10  1  0  0  0  0
  9 11  1  0  0  0  0
 10 19  1  0  0  0  0
 11 12  1  0  0  0  0
 12 13  1  0  0  0  0
 13 14  1  0  0  0  0
 13 17  1  0  0  0  0
 13 18  1  0  0  0  0
 14 15  1  0  0  0  0
 15 16  1  0  0  0  0
 16 17  1  0  0  0  0
 17 20  1  0  0  0  0
 20 21  1  0  0  0  0
 20 22  1  0  0  0  0
 22 23  1  0  0  0  0
 23 24  1  0  0  0  0
 24 25  1  0  0  0  0
 25 26  1  0  0  0  0
 25 27  1  0  0  0  0
M  END
$$$$
CLR_2rh1_C_413
  PyMOL2.2          3D                             0

 28 31  0  0  1  0  0  0  0  0999 V2000
   -5.0979   -0.8165    0.1084 C   0  0  0  0  0  0  0  0  0  0  0  0
   -6.6300   -0.6064    0.1093 C   0  0  0  0  0  0  0  0  0  0  0  0
   -7.0802    0.8433    0.3697 C   0  0  3  0  0  0  0  0  0  0  0  0
   -5.9654    1.7297    0.9374 C   0  0  0  0  0  0  0  0  0  0  0  0
   -4.6327    1.6405    0.2028 C   0  0  0  0  0  0  0  0  0  0  0  0
   -3.7685    2.6664    0.2878 C   0  0  0  0  0  0  0  0  0  0  0  0
   -2.3454    2.6281   -0.2357 C   0  0  0  0  0  0  0  0  0  0  0  0
   -1.9088    1.2917   -0.8803 C   0  0  3  0  0  0  0  0  0  0  0  0
   -2.7309    0.1007   -0.3169 C   0  0  3  0  0  0  0  0  0  0  0  0
   -4.2705    0.3372   -0.5187 C   0  0  3  0  0  0  0  0  0  0  0  0
   -2.2001   -1.2724   -0.8131 C   0  0  0  0  0  0  0  0  0  0  0  0
   -0.6708   -1.4246   -0.6780 C   0  0  0  0  0  0  0  0  0  0  0  0
    0.1056   -0.2684   -1.3482 C   0  0  3  0  0  0  0  0  0  0  0  0
   -0.4058    1.0214   -0.6724 C   0  0  3  0  0  0  0  0  0  0  0  0
    0.5737    2.0992   -1.1335 C   0  0  0  0  0  0  0  0  0  0  0  0
    1.9104    1.3498   -1.2015 C   0  0  0  0  0  0  0  0  0  0  0  0
    1.6128   -0.1539   -0.9881 C   0  0  3  0  0  0  0  0  0  0  0  0
   -0.0959   -0.3169   -2.8878 C   0  0  0  0  0  0  0  0  0  0  0  0
   -4.6201    0.4676   -2.0250 C   0  0  0  0  0  0  0  0  0  0  0  0
    2.6607   -1.0585   -1.7028 C   0  0  3  0  0  0  0  0  0  0  0  0
    2.3949   -2.5587   -1.4928 C   0  0  0  0  0  0  0  0  0  0  0  0
    4.1216   -0.7423   -1.2953 C   0  0  0  0  0  0  0  0  0  0  0  0
    4.4508   -0.9165    0.1995 C   0  0  0  0  0  0  0  0  0  0  0  0
    5.9363   -0.6159    0.4596 C   0  0  0  0  0  0  0  0  0  0  0  0
    6.3134   -0.6421    1.9528 C   0  0  0  0  0  0  0  0  0  0  0  0
    6.1453   -2.0344    2.5797 C   0  0  0  0  0  0  0  0  0  0  0  0
    7.7750   -0.2021    2.1112 C   0  0  0  0  0  0  0  0  0  0  0  0
   -7.5528    1.4183   -0.8245 O   0  0  0  0  0  0  0  0  0  0  0  0
  1  2  1  0  0  0  0
  1 10  1  0  0  0  0
  2  3  1  0  0  0  0
  3  4  1  0  0  0  0
  3 28  1  0  0  0  0
  4  5  1  0  0  0  0
  5  6  2  0  0  0  0
  5 10  1  0  0  0  0
  6  7  1  0  0  0  0
  7  8  1  0  0  0  0
  8  9  1  0  0  0  0
  8 14  1  0  0  0  0
  9 10  1  0  0  0  0
  9 11  1  0  0  0  0
 10 19  1  0  0  0  0
 11 12  1  0  0  0  0
 12 13  1  0  0  0  0
 13 14  1  0  0  0  0
 13 17  1  0  0  0  0
 13 18  1  0  0  0  0
 14 15  1  0  0  0  0
 15 16  1  0  0  0  0
 16 17  1  0  0  0  0
 17 20  1  0  0  0  0
 20 21  1  0  0  0  0
 20 22  1  0  0  0  0
 22 23  1  0  0  0  0
 23 24  1  0  0  0  0
 24 25  1  0  0  0  0
 25 26  1  0  0  0  0
 25 27  1  0  0  0  0
M  END
$$$$
CLR_2rh1_C_413
  PyMOL2.2          3D                             0

 28 31  0  0  1  0  0  0  0  0999 V2000
   -5.0471   -0.7717    0.1917 C   0  0  0  0  0  0  0  0  0  0  0  0
   -6.5711   -0.5640    0.2662 C   0  0  0  0  0  0  0  0  0  0  0  0
   -6.8769    0.8334    0.8022 C   0  0  3  0  0  0  0  0  0  0  0  0
   -6.2112    1.9164   -0.0548 C   0  0  0  0  0  0  0  0  0  0  0  0
   -4.7147    1.6928   -0.2159 C   0  0  0  0  0  0  0  0  0  0  0  0
   -3.8620    2.7107   -0.0140 C   0  0  0  0  0  0  0  0  0  0  0  0
   -2.3608    2.5905   -0.1448 C   0  0  0  0  0  0  0  0  0  0  0  0
   -1.9063    1.3243   -0.8899 C   0  0  3  0  0  0  0  0  0  0  0  0
   -2.7225    0.1004   -0.3985 C   0  0  3  0  0  0  0  0  0  0  0  0
   -4.2678    0.2856   -0.6462 C   0  0  3  0  0  0  0  0  0  0  0  0
   -2.1465   -1.2563   -0.9016 C   0  0  0  0  0  0  0  0  0  0  0  0
   -0.6213   -1.3900   -0.7148 C   0  0  0  0  0  0  0  0  0  0  0  0
    0.1369   -0.2083   -1.3494 C   0  0  3  0  0  0  0  0  0  0  0  0
   -0.3999    1.0699   -0.6735 C   0  0  3  0  0  0  0  0  0  0  0  0
    0.5930    2.1520   -1.1077 C   0  0  0  0  0  0  0  0  0  0  0  0
    1.9443    1.4143   -1.1364 C   0  0  0  0  0  0  0  0  0  0  0  0
    1.6239   -0.0829   -0.9216 C   0  0  3  0  0  0  0  0  0  0  0  0
   -0.0649   -0.2215   -2.8874 C   0  0  0  0  0  0  0  0  0  0  0  0
   -4.6248    0.1162   -2.1431 C   0  0  0  0  0  0  0  0  0  0  0  0
    2.6888   -1.1402   -1.3484 C   0  0  3  0  0  0  0  0  0  0  0  0
    3.9969   -0.8714   -0.5779 C   0  0  0  0  0  0  0  0  0  0  0  0
    3.0315   -1.4131   -2.8357 C   0  0  0  0  0  0  0  0  0  0  0  0
    3.5832   -0.2541   -3.6885 C   0  0  0  0  0  0  0  0  0  0  0  0
    4.1990   -0.7296   -5.0183 C   0  0  0  0  0  0  0  0  0  0  0  0
    3.2552   -1.4950   -5.9682 C   0  0  0  0  0  0  0  0  0  0  0  0
    2.0477   -0.6522   -6.4038 C   0  0  0  0  0  0  0  0  0  0  0  0
    4.0382   -1.9201   -7.2173 C   0  0  0  0  0  0  0  0  0  0  0  0
   -8.2773    1.0082    0.8105 O   0  0  0  0  0  0  0  0  0  0  0  0
  1  2  1  0  0  0  0
  1 10  1  0  0  0  0
  2  3  1  0  0  0  0
  3  4  1  0  0  0  0
  3 28  1  0  0  0  0
  4  5  1  0  0  0  0
  5  6  2  0  0  0  0
  5 10  1  0  0  0  0
  6  7  1  0  0  0  0
  7  8  1  0  0  0  0
  8  9  1  0  0  0  0
  8 14  1  0  0  0  0
  9 10  1  0  0  0  0
  9 11  1  0  0  0  0
 10 19  1  0  0  0  0
 11 12  1  0  0  0  0
 12 13  1  0  0  0  0
 13 14  1  0  0  0  0
 13 17  1  0  0  0  0
 13 18  1  0  0  0  0
 14 15  1  0  0  0  0
 15 16  1  0  0  0  0
 16 17  1  0  0  0  0
 17 20  1  0  0  0  0
 20 21  1  0  0  0  0
 20 22  1  0  0  0  0
 22 23  1  0  0  0  0
 23 24  1  0  0  0  0
 24 25  1  0  0  0  0
 25 26  1  0  0  0  0
 25 27  1  0  0  0  0
M  END
$$$$
CLR_2rh1_C_413
  PyMOL2.2          3D                             0

 28 31  0  0  1  0  0  0  0  0999 V2000
   -5.0925   -0.7443    0.1967 C   0  0  0  0  0  0  0  0  0  0  0  0
   -6.6133   -0.5105    0.2532 C   0  0  0  0  0  0  0  0  0  0  0  0
   -6.9012    0.8968    0.7723 C   0  0  3  0  0  0  0  0  0  0  0  0
   -6.2092    1.9600   -0.0887 C   0  0  0  0  0  0  0  0  0  0  0  0
   -4.7150    1.7099   -0.2338 C   0  0  0  0  0  0  0  0  0  0  0  0
   -3.8466    2.7155   -0.0379 C   0  0  0  0  0  0  0  0  0  0  0  0
   -2.3474    2.5689   -0.1548 C   0  0  0  0  0  0  0  0  0  0  0  0
   -1.9023    1.2822   -0.8714 C   0  0  3  0  0  0  0  0  0  0  0  0
   -2.7489    0.0825   -0.3756 C   0  0  3  0  0  0  0  0  0  0  0  0
   -4.2872    0.2909   -0.6437 C   0  0  3  0  0  0  0  0  0  0  0  0
   -2.1874   -1.2810   -0.8658 C   0  0  0  0  0  0  0  0  0  0  0  0
   -0.6665   -1.4352   -0.6685 C   0  0  0  0  0  0  0  0  0  0  0  0
    0.1316   -0.2732   -1.3034 C   0  0  3  0  0  0  0  0  0  0  0  0
   -0.4050    1.0033   -0.6243 C   0  0  3  0  0  0  0  0  0  0  0  0
    0.5867    2.0914   -1.0291 C   0  0  0  0  0  0  0  0  0  0  0  0
    1.9261    1.3454   -1.0755 C   0  0  0  0  0  0  0  0  0  0  0  0
    1.6277   -0.1636   -0.8928 C   0  0  3  0  0  0  0  0  0  0  0  0
   -0.0210   -0.2889   -2.8484 C   0  0  0  0  0  0  0  0  0  0  0  0
   -4.6309    0.1124   -2.1431 C   0  0  0  0  0  0  0  0  0  0  0  0
    2.7051   -1.0482   -1.5885 C   0  0  3  0  0  0  0  0  0  0  0  0
    2.4102   -2.5546   -1.4745 C   0  0  0  0  0  0  0  0  0  0  0  0
    4.1194   -0.7888   -0.9961 C   0  0  0  0  0  0  0  0  0  0  0  0
    5.0811   -0.0749   -1.9665 C   0  0  0  0  0  0  0  0  0  0  0  0
    5.5158   -0.9261   -3.1782 C   0  0  0  0  0  0  0  0  0  0  0  0
    6.8835   -1.6230   -3.0260 C   0  0  0  0  0  0  0  0  0  0  0  0
    6.9250   -2.6329   -1.8716 C   0  0  0  0  0  0  0  0  0  0  0  0
    7.2197   -2.3535   -4.3325 C   0  0  0  0  0  0  0  0  0  0  0  0
   -8.2989    1.0953    0.7645 O   0  0  0  0  0  0  0  0  0  0  0  0
  1  2  1  0  0  0  0
  1 10  1  0  0  0  0
  2  3  1  0  0  0  0
  3  4  1  0  0  0  0
  3 28  1  0  0  0  0
  4  5  1  0  0  0  0
  5  6  2  0  0  0  0
  5 10  1  0  0  0  0
  6  7  1  0  0  0  0
  7  8  1  0  0  0  0
  8  9  1  0  0  0  0
  8 14  1  0  0  0  0
  9 10  1  0  0  0  0
  9 11  1  0  0  0  0
 10 19  1  0  0  0  0
 11 12  1  0  0  0  0
 12 13  1  0  0  0  0
 13 14  1  0  0  0  0
 13 17  1  0  0  0  0
 13 18  1  0  0  0  0
 14 15  1  0  0  0  0
 15 16  1  0  0  0  0
 16 17  1  0  0  0  0
 17 20  1  0  0  0  0
 20 21  1  0  0  0  0
 20 22  1  0  0  0  0
 22 23  1  0  0  0  0
 23 24  1  0  0  0  0
 24 25  1  0  0  0  0
 25 26  1  0  0  0  0
 25 27  1  0  0  0  0
M  END
$$$$
CLR_2rh1_C_413
  PyMOL2.2          3D                             0

 28 31  0  0  1  0  0  0  0  0999 V2000
   -5.0671   -0.7613    0.1990 C   0  0  0  0  0  0  0  0  0  0  0  0
   -6.5894   -0.5418    0.2681 C   0  0  0  0  0  0  0  0  0  0  0  0
   -6.8868    0.8605    0.7959 C   0  0  3  0  0  0  0  0  0  0  0  0
   -6.2123    1.9334   -0.0649 C   0  0  0  0  0  0  0  0  0  0  0  0
   -4.7173    1.6988   -0.2227 C   0  0  0  0  0  0  0  0  0  0  0  0
   -3.8572    2.7117   -0.0270 C   0  0  0  0  0  0  0  0  0  0  0  0
   -2.3576    2.5798   -0.1552 C   0  0  0  0  0  0  0  0  0  0  0  0
   -1.9063    1.3033   -0.8862 C   0  0  3  0  0  0  0  0  0  0  0  0
   -2.7351    0.0925   -0.3894 C   0  0  3  0  0  0  0  0  0  0  0  0
   -4.2786    0.2860   -0.6426 C   0  0  3  0  0  0  0  0  0  0  0  0
   -2.1650   -1.2645   -0.8895 C   0  0  0  0  0  0  0  0  0  0  0  0
   -0.6421   -1.4033   -0.6934 C   0  0  0  0  0  0  0  0  0  0  0  0
    0.1444   -0.2377   -1.3331 C   0  0  3  0  0  0  0  0  0  0  0  0
   -0.4025    1.0389   -0.6596 C   0  0  3  0  0  0  0  0  0  0  0  0
    0.5766    2.1333   -1.0819 C   0  0  0  0  0  0  0  0  0  0  0  0
    1.9308    1.4102   -1.1017 C   0  0  0  0  0  0  0  0  0  0  0  0
    1.6421   -0.0994   -0.9233 C   0  0  3  0  0  0  0  0  0  0  0  0
   -0.0429   -0.2657   -2.8708 C   0  0  0  0  0  0  0  0  0  0  0  0
   -4.6325    0.1106   -2.1397 C   0  0  0  0  0  0  0  0  0  0  0  0
    2.7880   -1.0137   -1.4699 C   0  0  3  0  0  0  0  0  0  0  0  0
    3.1153   -0.9236   -2.9760 C   0  0  0  0  0  0  0  0  0  0  0  0
    2.6255   -2.5149   -1.1460 C   0  0  0  0  0  0  0  0  0  0  0  0
    2.5673   -2.8350    0.3581 C   0  0  0  0  0  0  0  0  0  0  0  0
    2.6114   -4.3381    0.6902 C   0  0  0  0  0  0  0  0  0  0  0  0
    1.4041   -5.1526    0.1736 C   0  0  0  0  0  0  0  0  0  0  0  0
    1.6978   -5.8333   -1.1732 C   0  0  0  0  0  0  0  0  0  0  0  0
    1.0415   -6.2526    1.1820 C   0  0  0  0  0  0  0  0  0  0  0  0
   -8.2865    1.0445    0.7995 O   0  0  0  0  0  0  0  0  0  0  0  0
  1  2  1  0  0  0  0
  1 10  1  0  0  0  0
  2  3  1  0  0  0  0
  3  4  1  0  0  0  0
  3 28  1  0  0  0  0
  4  5  1  0  0  0  0
  5  6  2  0  0  0  0
  5 10  1  0  0  0  0
  6  7  1  0  0  0  0
  7  8  1  0  0  0  0
  8  9  1  0  0  0  0
  8 14  1  0  0  0  0
  9 10  1  0  0  0  0
  9 11  1  0  0  0  0
 10 19  1  0  0  0  0
 11 12  1  0  0  0  0
 12 13  1  0  0  0  0
 13 14  1  0  0  0  0
 13 17  1  0  0  0  0
 13 18  1  0  0  0  0
 14 15  1  0  0  0  0
 15 16  1  0  0  0  0
 16 17  1  0  0  0  0
 17 20  1  0  0  0  0
 20 21  1  0  0  0  0
 20 22  1  0  0  0  0
 22 23  1  0  0  0  0
 23 24  1  0  0  0  0
 24 25  1  0  0  0  0
 25 26  1  0  0  0  0
 25 27  1  0  0  0  0
M  END
$$$$
CLR_2rh1_C_413
  PyMOL2.2          3D                             0

 28 31  0  0  1  0  0  0  0  0999 V2000
   -4.9433   -0.7853    0.2545 C   0  0  0  0  0  0  0  0  0  0  0  0
   -6.4754   -0.7003    0.1262 C   0  0  0  0  0  0  0  0  0  0  0  0
   -6.9418    0.7200    0.4390 C   0  0  3  0  0  0  0  0  0  0  0  0
   -6.2526    1.7453   -0.4694 C   0  0  0  0  0  0  0  0  0  0  0  0
   -4.7360    1.6314   -0.4307 C   0  0  0  0  0  0  0  0  0  0  0  0
   -3.9872    2.7361   -0.2727 C   0  0  0  0  0  0  0  0  0  0  0  0
   -2.4779    2.7298   -0.2181 C   0  0  0  0  0  0  0  0  0  0  0  0
   -1.8437    1.4221   -0.7233 C   0  0  3  0  0  0  0  0  0  0  0  0
   -2.6300    0.2040   -0.1714 C   0  0  3  0  0  0  0  0  0  0  0  0
   -4.1412    0.2254   -0.6184 C   0  0  3  0  0  0  0  0  0  0  0  0
   -1.9049   -1.1523   -0.4154 C   0  0  0  0  0  0  0  0  0  0  0  0
   -0.4021   -1.1319   -0.0654 C   0  0  0  0  0  0  0  0  0  0  0  0
    0.3351    0.0365   -0.7525 C   0  0  3  0  0  0  0  0  0  0  0  0
   -0.3671    1.3248   -0.2904 C   0  0  3  0  0  0  0  0  0  0  0  0
    0.5945    2.4421   -0.7081 C   0  0  0  0  0  0  0  0  0  0  0  0
    1.9890    1.8092   -0.5557 C   0  0  0  0  0  0  0  0  0  0  0  0
    1.7518    0.3252   -0.1935 C   0  0  3  0  0  0  0  0  0  0  0  0
    0.3359   -0.1763   -2.2881 C   0  0  0  0  0  0  0  0  0  0  0  0
   -4.2954   -0.1523   -2.1118 C   0  0  0  0  0  0  0  0  0  0  0  0
    2.8992   -0.6840   -0.5056 C   0  0  3  0  0  0  0  0  0  0  0  0
    3.8968   -0.6850    0.6697 C   0  0  0  0  0  0  0  0  0  0  0  0
    3.6743   -0.4477   -1.8273 C   0  0  0  0  0  0  0  0  0  0  0  0
    4.6119   -1.6023   -2.2363 C   0  0  0  0  0  0  0  0  0  0  0  0
    6.0997   -1.2469   -2.0304 C   0  0  0  0  0  0  0  0  0  0  0  0
    7.1071   -2.3732   -2.3370 C   0  0  0  0  0  0  0  0  0  0  0  0
    6.9497   -3.5695   -1.3877 C   0  0  0  0  0  0  0  0  0  0  0  0
    7.0217   -2.8560   -3.7921 C   0  0  0  0  0  0  0  0  0  0  0  0
   -8.3415    0.7746    0.2651 O   0  0  0  0  0  0  0  0  0  0  0  0
  1  2  1  0  0  0  0
  1 10  1  0  0  0  0
  2  3  1  0  0  0  0
  3  4  1  0  0  0  0
  3 28  1  0  0  0  0
  4  5  1  0  0  0  0
  5  6  2  0  0  0  0
  5 10  1  0  0  0  0
  6  7  1  0  0  0  0
  7  8  1  0  0  0  0
  8  9  1  0  0  0  0
  8 14  1  0  0  0  0
  9 10  1  0  0  0  0
  9 11  1  0  0  0  0
 10 19  1  0  0  0  0
 11 12  1  0  0  0  0
 12 13  1  0  0  0  0
 13 14  1  0  0  0  0
 13 17  1  0  0  0  0
 13 18  1  0  0  0  0
 14 15  1  0  0  0  0
 15 16  1  0  0  0  0
 16 17  1  0  0  0  0
 17 20  1  0  0  0  0
 20 21  1  0  0  0  0
 20 22  1  0  0  0  0
 22 23  1  0  0  0  0
 23 24  1  0  0  0  0
 24 25  1  0  0  0  0
 25 26  1  0  0  0  0
 25 27  1  0  0  0  0
M  END
$$$$
CLR_2rh1_C_413
  PyMOL2.2          3D                             0

 28 31  0  0  1  0  0  0  0  0999 V2000
   -5.0643   -0.7632    0.1978 C   0  0  0  0  0  0  0  0  0  0  0  0
   -6.5864   -0.5453    0.2703 C   0  0  0  0  0  0  0  0  0  0  0  0
   -6.8843    0.8558    0.8013 C   0  0  3  0  0  0  0  0  0  0  0  0
   -6.2121    1.9313   -0.0583 C   0  0  0  0  0  0  0  0  0  0  0  0
   -4.7172    1.6982   -0.2188 C   0  0  0  0  0  0  0  0  0  0  0  0
   -3.8573    2.7121   -0.0231 C   0  0  0  0  0  0  0  0  0  0  0  0
   -2.3579    2.5812   -0.1562 C   0  0  0  0  0  0  0  0  0  0  0  0
   -1.9072    1.3065   -0.8898 C   0  0  3  0  0  0  0  0  0  0  0  0
   -2.7338    0.0938   -0.3938 C   0  0  3  0  0  0  0  0  0  0  0  0
   -4.2778    0.2862   -0.6434 C   0  0  3  0  0  0  0  0  0  0  0  0
   -2.1646   -1.2625   -0.8985 C   0  0  0  0  0  0  0  0  0  0  0  0
   -0.6420   -1.4030   -0.7047 C   0  0  0  0  0  0  0  0  0  0  0  0
    0.1431   -0.2343   -1.3359 C   0  0  3  0  0  0  0  0  0  0  0  0
   -0.4027    1.0426   -0.6640 C   0  0  3  0  0  0  0  0  0  0  0  0
    0.5791    2.1338   -1.0890 C   0  0  0  0  0  0  0  0  0  0  0  0
    1.9318    1.4055   -1.1190 C   0  0  0  0  0  0  0  0  0  0  0  0
    1.6356   -0.0992   -0.9130 C   0  0  3  0  0  0  0  0  0  0  0  0
   -0.0422   -0.2588   -2.8759 C   0  0  0  0  0  0  0  0  0  0  0  0
   -4.6350    0.1144   -2.1407 C   0  0  0  0  0  0  0  0  0  0  0  0
    2.7847   -1.0233   -1.4330 C   0  0  3  0  0  0  0  0  0  0  0  0
    3.0727   -1.0103   -2.9484 C   0  0  0  0  0  0  0  0  0  0  0  0
    2.6732   -2.5072   -1.0129 C   0  0  0  0  0  0  0  0  0  0  0  0
    2.6272   -2.7270    0.5120 C   0  0  0  0  0  0  0  0  0  0  0  0
    2.8772   -4.1843    0.9492 C   0  0  0  0  0  0  0  0  0  0  0  0
    1.6256   -5.0762    1.0847 C   0  0  0  0  0  0  0  0  0  0  0  0
    0.9212   -5.3564   -0.2486 C   0  0  0  0  0  0  0  0  0  0  0  0
    2.0419   -6.4193    1.7017 C   0  0  0  0  0  0  0  0  0  0  0  0
   -8.2834    1.0385    0.8092 O   0  0  0  0  0  0  0  0  0  0  0  0
  1  2  1  0  0  0  0
  1 10  1  0  0  0  0
  2  3  1  0  0  0  0
  3  4  1  0  0  0  0
  3 28  1  0  0  0  0
  4  5  1  0  0  0  0
  5  6  2  0  0  0  0
  5 10  1  0  0  0  0
  6  7  1  0  0  0  0
  7  8  1  0  0  0  0
  8  9  1  0  0  0  0
  8 14  1  0  0  0  0
  9 10  1  0  0  0  0
  9 11  1  0  0  0  0
 10 19  1  0  0  0  0
 11 12  1  0  0  0  0
 12 13  1  0  0  0  0
 13 14  1  0  0  0  0
 13 17  1  0  0  0  0
 13 18  1  0  0  0  0
 14 15  1  0  0  0  0
 15 16  1  0  0  0  0
 16 17  1  0  0  0  0
 17 20  1  0  0  0  0
 20 21  1  0  0  0  0
 20 22  1  0  0  0  0
 22 23  1  0  0  0  0
 23 24  1  0  0  0  0
 24 25  1  0  0  0  0
 25 26  1  0  0  0  0
 25 27  1  0  0  0  0
M  END
$$$$
CLR_2rh1_C_413
  PyMOL2.2          3D                             0

 28 31  0  0  1  0  0  0  0  0999 V2000
   -5.0628   -0.7623    0.2007 C   0  0  0  0  0  0  0  0  0  0  0  0
   -6.5852   -0.5455    0.2729 C   0  0  0  0  0  0  0  0  0  0  0  0
   -6.8833    0.8564    0.8012 C   0  0  3  0  0  0  0  0  0  0  0  0
   -6.2126    1.9309   -0.0612 C   0  0  0  0  0  0  0  0  0  0  0  0
   -4.7170    1.6983   -0.2223 C   0  0  0  0  0  0  0  0  0  0  0  0
   -3.8580    2.7128   -0.0300 C   0  0  0  0  0  0  0  0  0  0  0  0
   -2.3581    2.5832   -0.1625 C   0  0  0  0  0  0  0  0  0  0  0  0
   -1.9068    1.3055   -0.8915 C   0  0  3  0  0  0  0  0  0  0  0  0
   -2.7336    0.0937   -0.3914 C   0  0  3  0  0  0  0  0  0  0  0  0
   -4.2770    0.2858   -0.6434 C   0  0  3  0  0  0  0  0  0  0  0  0
   -2.1634   -1.2627   -0.8922 C   0  0  0  0  0  0  0  0  0  0  0  0
   -0.6403   -1.4042   -0.7027 C   0  0  0  0  0  0  0  0  0  0  0  0
    0.1423   -0.2334   -1.3377 C   0  0  3  0  0  0  0  0  0  0  0  0
   -0.4034    1.0417   -0.6620 C   0  0  3  0  0  0  0  0  0  0  0  0
    0.5792    2.1357   -1.0801 C   0  0  0  0  0  0  0  0  0  0  0  0
    1.9331    1.4107   -1.0950 C   0  0  0  0  0  0  0  0  0  0  0  0
    1.6356   -0.0977   -0.9216 C   0  0  3  0  0  0  0  0  0  0  0  0
   -0.0360   -0.2586   -2.8775 C   0  0  0  0  0  0  0  0  0  0  0  0
   -4.6336    0.1104   -2.1392 C   0  0  0  0  0  0  0  0  0  0  0  0
    2.7700   -1.0291   -1.4526 C   0  0  3  0  0  0  0  0  0  0  0  0
    3.1217   -0.9465   -2.9540 C   0  0  0  0  0  0  0  0  0  0  0  0
    2.5040   -2.4985   -1.0607 C   0  0  0  0  0  0  0  0  0  0  0  0
    3.7554   -3.3946   -1.1280 C   0  0  0  0  0  0  0  0  0  0  0  0
    3.5003   -4.8099   -0.5741 C   0  0  0  0  0  0  0  0  0  0  0  0
    3.9483   -5.0276    0.8865 C   0  0  0  0  0  0  0  0  0  0  0  0
    3.2167   -4.1297    1.8927 C   0  0  0  0  0  0  0  0  0  0  0  0
    3.7082   -6.4941    1.2699 C   0  0  0  0  0  0  0  0  0  0  0  0
   -8.2837    1.0391    0.8093 O   0  0  0  0  0  0  0  0  0  0  0  0
  1  2  1  0  0  0  0
  1 10  1  0  0  0  0
  2  3  1  0  0  0  0
  3  4  1  0  0  0  0
  3 28  1  0  0  0  0
  4  5  1  0  0  0  0
  5  6  2  0  0  0  0
  5 10  1  0  0  0  0
  6  7  1  0  0  0  0
  7  8  1  0  0  0  0
  8  9  1  0  0  0  0
  8 14  1  0  0  0  0
  9 10  1  0  0  0  0
  9 11  1  0  0  0  0
 10 19  1  0  0  0  0
 11 12  1  0  0  0  0
 12 13  1  0  0  0  0
 13 14  1  0  0  0  0
 13 17  1  0  0  0  0
 13 18  1  0  0  0  0
 14 15  1  0  0  0  0
 15 16  1  0  0  0  0
 16 17  1  0  0  0  0
 17 20  1  0  0  0  0
 20 21  1  0  0  0  0
 20 22  1  0  0  0  0
 22 23  1  0  0  0  0
 23 24  1  0  0  0  0
 24 25  1  0  0  0  0
 25 26  1  0  0  0  0
 25 27  1  0  0  0  0
M  END
$$$$
CLR_2rh1_C_413
  PyMOL2.2          3D                             0

 28 31  0  0  1  0  0  0  0  0999 V2000
   -5.0630   -0.7618    0.2005 C   0  0  0  0  0  0  0  0  0  0  0  0
   -6.5858   -0.5438    0.2734 C   0  0  0  0  0  0  0  0  0  0  0  0
   -6.8831    0.8570    0.8016 C   0  0  3  0  0  0  0  0  0  0  0  0
   -6.2121    1.9314   -0.0605 C   0  0  0  0  0  0  0  0  0  0  0  0
   -4.7163    1.6983   -0.2224 C   0  0  0  0  0  0  0  0  0  0  0  0
   -3.8575    2.7126   -0.0301 C   0  0  0  0  0  0  0  0  0  0  0  0
   -2.3580    2.5828   -0.1623 C   0  0  0  0  0  0  0  0  0  0  0  0
   -1.9071    1.3044   -0.8916 C   0  0  3  0  0  0  0  0  0  0  0  0
   -2.7342    0.0938   -0.3928 C   0  0  3  0  0  0  0  0  0  0  0  0
   -4.2774    0.2855   -0.6425 C   0  0  3  0  0  0  0  0  0  0  0  0
   -2.1641   -1.2628   -0.8931 C   0  0  0  0  0  0  0  0  0  0  0  0
   -0.6412   -1.4057   -0.7045 C   0  0  0  0  0  0  0  0  0  0  0  0
    0.1426   -0.2346   -1.3379 C   0  0  3  0  0  0  0  0  0  0  0  0
   -0.4038    1.0414   -0.6624 C   0  0  3  0  0  0  0  0  0  0  0  0
    0.5791    2.1350   -1.0803 C   0  0  0  0  0  0  0  0  0  0  0  0
    1.9327    1.4114   -1.0947 C   0  0  0  0  0  0  0  0  0  0  0  0
    1.6353   -0.0976   -0.9206 C   0  0  3  0  0  0  0  0  0  0  0  0
   -0.0360   -0.2595   -2.8776 C   0  0  0  0  0  0  0  0  0  0  0  0
   -4.6344    0.1095   -2.1388 C   0  0  0  0  0  0  0  0  0  0  0  0
    2.7734   -1.0256   -1.4513 C   0  0  3  0  0  0  0  0  0  0  0  0
    3.1157   -0.9519   -2.9553 C   0  0  0  0  0  0  0  0  0  0  0  0
    2.5179   -2.4934   -1.0464 C   0  0  0  0  0  0  0  0  0  0  0  0
    3.7569   -3.3969   -1.1605 C   0  0  0  0  0  0  0  0  0  0  0  0
    3.5896   -4.7859   -0.5164 C   0  0  0  0  0  0  0  0  0  0  0  0
    2.4883   -5.6713   -1.1403 C   0  0  0  0  0  0  0  0  0  0  0  0
    2.9141   -7.1454   -1.0968 C   0  0  0  0  0  0  0  0  0  0  0  0
    1.1487   -5.5518   -0.3941 C   0  0  0  0  0  0  0  0  0  0  0  0
   -8.2836    1.0404    0.8098 O   0  0  0  0  0  0  0  0  0  0  0  0
  1  2  1  0  0  0  0
  1 10  1  0  0  0  0
  2  3  1  0  0  0  0
  3  4  1  0  0  0  0
  3 28  1  0  0  0  0
  4  5  1  0  0  0  0
  5  6  2  0  0  0  0
  5 10  1  0  0  0  0
  6  7  1  0  0  0  0
  7  8  1  0  0  0  0
  8  9  1  0  0  0  0
  8 14  1  0  0  0  0
  9 10  1  0  0  0  0
  9 11  1  0  0  0  0
 10 19  1  0  0  0  0
 11 12  1  0  0  0  0
 12 13  1  0  0  0  0
 13 14  1  0  0  0  0
 13 17  1  0  0  0  0
 13 18  1  0  0  0  0
 14 15  1  0  0  0  0
 15 16  1  0  0  0  0
 16 17  1  0  0  0  0
 17 20  1  0  0  0  0
 20 21  1  0  0  0  0
 20 22  1  0  0  0  0
 22 23  1  0  0  0  0
 23 24  1  0  0  0  0
 24 25  1  0  0  0  0
 25 26  1  0  0  0  0
 25 27  1  0  0  0  0
M  END
$$$$
CLR_2rh1_C_413
  PyMOL2.2          3D                             0

 28 31  0  0  1  0  0  0  0  0999 V2000
   -5.0445   -0.7712    0.1991 C   0  0  0  0  0  0  0  0  0  0  0  0
   -6.5689   -0.5653    0.2640 C   0  0  0  0  0  0  0  0  0  0  0  0
   -6.8798    0.8345    0.7881 C   0  0  3  0  0  0  0  0  0  0  0  0
   -6.2132    1.9119   -0.0748 C   0  0  0  0  0  0  0  0  0  0  0  0
   -4.7165    1.6916   -0.2300 C   0  0  0  0  0  0  0  0  0  0  0  0
   -3.8667    2.7142   -0.0384 C   0  0  0  0  0  0  0  0  0  0  0  0
   -2.3661    2.5981   -0.1654 C   0  0  0  0  0  0  0  0  0  0  0  0
   -1.9000    1.3214   -0.8857 C   0  0  3  0  0  0  0  0  0  0  0  0
   -2.7190    0.1014   -0.3854 C   0  0  3  0  0  0  0  0  0  0  0  0
   -4.2624    0.2811   -0.6438 C   0  0  3  0  0  0  0  0  0  0  0  0
   -2.1384   -1.2612   -0.8688 C   0  0  0  0  0  0  0  0  0  0  0  0
   -0.6102   -1.3879   -0.7031 C   0  0  0  0  0  0  0  0  0  0  0  0
    0.1398   -0.1958   -1.3299 C   0  0  3  0  0  0  0  0  0  0  0  0
   -0.3981    1.0722   -0.6428 C   0  0  3  0  0  0  0  0  0  0  0  0
    0.6023    2.1622   -1.0386 C   0  0  0  0  0  0  0  0  0  0  0  0
    1.9461    1.4167   -1.1485 C   0  0  0  0  0  0  0  0  0  0  0  0
    1.6286   -0.0790   -0.9157 C   0  0  3  0  0  0  0  0  0  0  0  0
   -0.0414   -0.2004   -2.8724 C   0  0  0  0  0  0  0  0  0  0  0  0
   -4.6121    0.0995   -2.1415 C   0  0  0  0  0  0  0  0  0  0  0  0
    2.6096   -1.1725   -1.4545 C   0  0  3  0  0  0  0  0  0  0  0  0
    3.2291   -1.9157   -0.2552 C   0  0  0  0  0  0  0  0  0  0  0  0
    3.7891   -0.7105   -2.3503 C   0  0  0  0  0  0  0  0  0  0  0  0
    3.4515   -0.3989   -3.8207 C   0  0  0  0  0  0  0  0  0  0  0  0
    3.1565   -1.6620   -4.6501 C   0  0  0  0  0  0  0  0  0  0  0  0
    2.6889   -1.3507   -6.0850 C   0  0  0  0  0  0  0  0  0  0  0  0
    3.7691   -0.6452   -6.9199 C   0  0  0  0  0  0  0  0  0  0  0  0
    2.3014   -2.6600   -6.7844 C   0  0  0  0  0  0  0  0  0  0  0  0
   -8.2807    1.0054    0.7897 O   0  0  0  0  0  0  0  0  0  0  0  0
  1  2  1  0  0  0  0
  1 10  1  0  0  0  0
  2  3  1  0  0  0  0
  3  4  1  0  0  0  0
  3 28  1  0  0  0  0
  4  5  1  0  0  0  0
  5  6  2  0  0  0  0
  5 10  1  0  0  0  0
  6  7  1  0  0  0  0
  7  8  1  0  0  0  0
  8  9  1  0  0  0  0
  8 14  1  0  0  0  0
  9 10  1  0  0  0  0
  9 11  1  0  0  0  0
 10 19  1  0  0  0  0
 11 12  1  0  0  0  0
 12 13  1  0  0  0  0
 13 14  1  0  0  0  0
 13 17  1  0  0  0  0
 13 18  1  0  0  0  0
 14 15  1  0  0  0  0
 15 16  1  0  0  0  0
 16 17  1  0  0  0  0
 17 20  1  0  0  0  0
 20 21  1  0  0  0  0
 20 22  1  0  0  0  0
 22 23  1  0  0  0  0
 23 24  1  0  0  0  0
 24 25  1  0  0  0  0
 25 26  1  0  0  0  0
 25 27  1  0  0  0  0
M  END
$$$$
CLR_2rh1_C_413
  PyMOL2.2          3D                             0

 28 31  0  0  1  0  0  0  0  0999 V2000
   -5.0648   -0.7618    0.1990 C   0  0  0  0  0  0  0  0  0  0  0  0
   -6.5881   -0.5436    0.2687 C   0  0  0  0  0  0  0  0  0  0  0  0
   -6.8865    0.8580    0.7969 C   0  0  3  0  0  0  0  0  0  0  0  0
   -6.2117    1.9325   -0.0638 C   0  0  0  0  0  0  0  0  0  0  0  0
   -4.7161    1.6984   -0.2211 C   0  0  0  0  0  0  0  0  0  0  0  0
   -3.8564    2.7116   -0.0241 C   0  0  0  0  0  0  0  0  0  0  0  0
   -2.3577    2.5804   -0.1528 C   0  0  0  0  0  0  0  0  0  0  0  0
   -1.9063    1.3055   -0.8866 C   0  0  3  0  0  0  0  0  0  0  0  0
   -2.7345    0.0926   -0.3905 C   0  0  3  0  0  0  0  0  0  0  0  0
   -4.2775    0.2860   -0.6428 C   0  0  3  0  0  0  0  0  0  0  0  0
   -2.1643   -1.2637   -0.8927 C   0  0  0  0  0  0  0  0  0  0  0  0
   -0.6407   -1.4034   -0.6970 C   0  0  0  0  0  0  0  0  0  0  0  0
    0.1422   -0.2368   -1.3363 C   0  0  3  0  0  0  0  0  0  0  0  0
   -0.4029    1.0413   -0.6623 C   0  0  3  0  0  0  0  0  0  0  0  0
    0.5795    2.1330   -1.0877 C   0  0  0  0  0  0  0  0  0  0  0  0
    1.9321    1.4073   -1.1080 C   0  0  0  0  0  0  0  0  0  0  0  0
    1.6364   -0.0996   -0.9208 C   0  0  3  0  0  0  0  0  0  0  0  0
   -0.0476   -0.2623   -2.8753 C   0  0  0  0  0  0  0  0  0  0  0  0
   -4.6323    0.1121   -2.1406 C   0  0  0  0  0  0  0  0  0  0  0  0
    2.7865   -1.0158   -1.4502 C   0  0  3  0  0  0  0  0  0  0  0  0
    3.0744   -0.9838   -2.9656 C   0  0  0  0  0  0  0  0  0  0  0  0
    2.6557   -2.5033   -1.0546 C   0  0  0  0  0  0  0  0  0  0  0  0
    2.5518   -2.8473    0.4457 C   0  0  0  0  0  0  0  0  0  0  0  0
    3.8001   -2.5113    1.2897 C   0  0  0  0  0  0  0  0  0  0  0  0
    3.8395   -1.1186    1.9558 C   0  0  0  0  0  0  0  0  0  0  0  0
    2.7495   -0.9453    3.0244 C   0  0  0  0  0  0  0  0  0  0  0  0
    5.2081   -0.9245    2.6223 C   0  0  0  0  0  0  0  0  0  0  0  0
   -8.2864    1.0410    0.8009 O   0  0  0  0  0  0  0  0  0  0  0  0
  1  2  1  0  0  0  0
  1 10  1  0  0  0  0
  2  3  1  0  0  0  0
  3  4  1  0  0  0  0
  3 28  1  0  0  0  0
  4  5  1  0  0  0  0
  5  6  2  0  0  0  0
  5 10  1  0  0  0  0
  6  7  1  0  0  0  0
  7  8  1  0  0  0  0
  8  9  1  0  0  0  0
  8 14  1  0  0  0  0
  9 10  1  0  0  0  0
  9 11  1  0  0  0  0
 10 19  1  0  0  0  0
 11 12  1  0  0  0  0
 12 13  1  0  0  0  0
 13 14  1  0  0  0  0
 13 17  1  0  0  0  0
 13 18  1  0  0  0  0
 14 15  1  0  0  0  0
 15 16  1  0  0  0  0
 16 17  1  0  0  0  0
 17 20  1  0  0  0  0
 20 21  1  0  0  0  0
 20 22  1  0  0  0  0
 22 23  1  0  0  0  0
 23 24  1  0  0  0  0
 24 25  1  0  0  0  0
 25 26  1  0  0  0  0
 25 27  1  0  0  0  0
M  END
$$$$
CLR_2rh1_C_413
  PyMOL2.2          3D                             0

 28 31  0  0  1  0  0  0  0  0999 V2000
   -5.0686   -0.7568    0.2079 C   0  0  0  0  0  0  0  0  0  0  0  0
   -6.5919   -0.5383    0.2671 C   0  0  0  0  0  0  0  0  0  0  0  0
   -6.8923    0.8681    0.7809 C   0  0  3  0  0  0  0  0  0  0  0  0
   -6.2144    1.9342   -0.0855 C   0  0  0  0  0  0  0  0  0  0  0  0
   -4.7184    1.6990   -0.2352 C   0  0  0  0  0  0  0  0  0  0  0  0
   -3.8593    2.7153   -0.0469 C   0  0  0  0  0  0  0  0  0  0  0  0
   -2.3594    2.5829   -0.1680 C   0  0  0  0  0  0  0  0  0  0  0  0
   -1.9024    1.2975   -0.8796 C   0  0  3  0  0  0  0  0  0  0  0  0
   -2.7350    0.0928   -0.3754 C   0  0  3  0  0  0  0  0  0  0  0  0
   -4.2765    0.2832   -0.6398 C   0  0  3  0  0  0  0  0  0  0  0  0
   -2.1604   -1.2647   -0.8648 C   0  0  0  0  0  0  0  0  0  0  0  0
   -0.6371   -1.4014   -0.6658 C   0  0  0  0  0  0  0  0  0  0  0  0
    0.1538   -0.2378   -1.3095 C   0  0  3  0  0  0  0  0  0  0  0  0
   -0.4020    1.0342   -0.6371 C   0  0  3  0  0  0  0  0  0  0  0  0
    0.5707    2.1316   -1.0570 C   0  0  0  0  0  0  0  0  0  0  0  0
    1.9192    1.4043   -1.0681 C   0  0  0  0  0  0  0  0  0  0  0  0
    1.6540   -0.1119   -0.9090 C   0  0  3  0  0  0  0  0  0  0  0  0
   -0.0036   -0.2593   -2.8546 C   0  0  0  0  0  0  0  0  0  0  0  0
   -4.6226    0.0947   -2.1372 C   0  0  0  0  0  0  0  0  0  0  0  0
    2.7356   -0.9959   -1.6102 C   0  0  3  0  0  0  0  0  0  0  0  0
    2.4067   -2.4958   -1.4758 C   0  0  0  0  0  0  0  0  0  0  0  0
    4.1677   -0.8100   -1.0311 C   0  0  0  0  0  0  0  0  0  0  0  0
    4.9997    0.4070   -1.4864 C   0  0  0  0  0  0  0  0  0  0  0  0
    5.1627    0.6536   -3.0029 C   0  0  0  0  0  0  0  0  0  0  0  0
    5.9413   -0.3697   -3.8609 C   0  0  0  0  0  0  0  0  0  0  0  0
    7.2559   -0.8191   -3.2099 C   0  0  0  0  0  0  0  0  0  0  0  0
    5.1122   -1.5966   -4.2612 C   0  0  0  0  0  0  0  0  0  0  0  0
   -8.2922    1.0508    0.7777 O   0  0  0  0  0  0  0  0  0  0  0  0
  1  2  1  0  0  0  0
  1 10  1  0  0  0  0
  2  3  1  0  0  0  0
  3  4  1  0  0  0  0
  3 28  1  0  0  0  0
  4  5  1  0  0  0  0
  5  6  2  0  0  0  0
  5 10  1  0  0  0  0
  6  7  1  0  0  0  0
  7  8  1  0  0  0  0
  8  9  1  0  0  0  0
  8 14  1  0  0  0  0
  9 10  1  0  0  0  0
  9 11  1  0  0  0  0
 10 19  1  0  0  0  0
 11 12  1  0  0  0  0
 12 13  1  0  0  0  0
 13 14  1  0  0  0  0
 13 17  1  0  0  0  0
 13 18  1  0  0  0  0
 14 15  1  0  0  0  0
 15 16  1  0  0  0  0
 16 17  1  0  0  0  0
 17 20  1  0  0  0  0
 20 21  1  0  0  0  0
 20 22  1  0  0  0  0
 22 23  1  0  0  0  0
 23 24  1  0  0  0  0
 24 25  1  0  0  0  0
 25 26  1  0  0  0  0
 25 27  1  0  0  0  0
M  END
$$$$
CLR_2rh1_C_413
  PyMOL2.2          3D                             0

 28 31  0  0  1  0  0  0  0  0999 V2000
   -5.0688   -0.7573    0.2057 C   0  0  0  0  0  0  0  0  0  0  0  0
   -6.5919   -0.5382    0.2656 C   0  0  0  0  0  0  0  0  0  0  0  0
   -6.8919    0.8674    0.7807 C   0  0  3  0  0  0  0  0  0  0  0  0
   -6.2138    1.9343   -0.0848 C   0  0  0  0  0  0  0  0  0  0  0  0
   -4.7176    1.6992   -0.2339 C   0  0  0  0  0  0  0  0  0  0  0  0
   -3.8588    2.7146   -0.0449 C   0  0  0  0  0  0  0  0  0  0  0  0
   -2.3590    2.5820   -0.1666 C   0  0  0  0  0  0  0  0  0  0  0  0
   -1.9026    1.2973   -0.8789 C   0  0  3  0  0  0  0  0  0  0  0  0
   -2.7351    0.0921   -0.3759 C   0  0  3  0  0  0  0  0  0  0  0  0
   -4.2765    0.2837   -0.6402 C   0  0  3  0  0  0  0  0  0  0  0  0
   -2.1611   -1.2658   -0.8637 C   0  0  0  0  0  0  0  0  0  0  0  0
   -0.6376   -1.4030   -0.6679 C   0  0  0  0  0  0  0  0  0  0  0  0
    0.1517   -0.2375   -1.3109 C   0  0  3  0  0  0  0  0  0  0  0  0
   -0.4015    1.0344   -0.6361 C   0  0  3  0  0  0  0  0  0  0  0  0
    0.5726    2.1328   -1.0491 C   0  0  0  0  0  0  0  0  0  0  0  0
    1.9198    1.4029   -1.0890 C   0  0  0  0  0  0  0  0  0  0  0  0
    1.6503   -0.1100   -0.9084 C   0  0  3  0  0  0  0  0  0  0  0  0
   -0.0056   -0.2590   -2.8559 C   0  0  0  0  0  0  0  0  0  0  0  0
   -4.6221    0.0963   -2.1374 C   0  0  0  0  0  0  0  0  0  0  0  0
    2.7387   -0.9946   -1.5963 C   0  0  3  0  0  0  0  0  0  0  0  0
    2.4168   -2.4970   -1.4776 C   0  0  0  0  0  0  0  0  0  0  0  0
    4.1556   -0.7882   -0.9931 C   0  0  0  0  0  0  0  0  0  0  0  0
    4.9819    0.3410   -1.6415 C   0  0  0  0  0  0  0  0  0  0  0  0
    6.4601    0.3317   -1.1929 C   0  0  0  0  0  0  0  0  0  0  0  0
    7.4770   -0.3751   -2.1157 C   0  0  0  0  0  0  0  0  0  0  0  0
    7.1409   -1.8479   -2.3830 C   0  0  0  0  0  0  0  0  0  0  0  0
    7.6451    0.3596   -3.4545 C   0  0  0  0  0  0  0  0  0  0  0  0
   -8.2920    1.0519    0.7771 O   0  0  0  0  0  0  0  0  0  0  0  0
  1  2  1  0  0  0  0
  1 10  1  0  0  0  0
  2  3  1  0  0  0  0
  3  4  1  0  0  0  0
  3 28  1  0  0  0  0
  4  5  1  0  0  0  0
  5  6  2  0  0  0  0
  5 10  1  0  0  0  0
  6  7  1  0  0  0  0
  7  8  1  0  0  0  0
  8  9  1  0  0  0  0
  8 14  1  0  0  0  0
  9 10  1  0  0  0  0
  9 11  1  0  0  0  0
 10 19  1  0  0  0  0
 11 12  1  0  0  0  0
 12 13  1  0  0  0  0
 13 14  1  0  0  0  0
 13 17  1  0  0  0  0
 13 18  1  0  0  0  0
 14 15  1  0  0  0  0
 15 16  1  0  0  0  0
 16 17  1  0  0  0  0
 17 20  1  0  0  0  0
 20 21  1  0  0  0  0
 20 22  1  0  0  0  0
 22 23  1  0  0  0  0
 23 24  1  0  0  0  0
 24 25  1  0  0  0  0
 25 26  1  0  0  0  0
 25 27  1  0  0  0  0
M  END
$$$$
CLR_2rh1_C_413
  PyMOL2.2          3D                             0

 28 31  0  0  1  0  0  0  0  0999 V2000
   -5.0664   -0.7608    0.1999 C   0  0  0  0  0  0  0  0  0  0  0  0
   -6.5890   -0.5422    0.2678 C   0  0  0  0  0  0  0  0  0  0  0  0
   -6.8881    0.8595    0.7936 C   0  0  3  0  0  0  0  0  0  0  0  0
   -6.2121    1.9329   -0.0675 C   0  0  0  0  0  0  0  0  0  0  0  0
   -4.7167    1.6985   -0.2234 C   0  0  0  0  0  0  0  0  0  0  0  0
   -3.8577    2.7115   -0.0267 C   0  0  0  0  0  0  0  0  0  0  0  0
   -2.3574    2.5805   -0.1529 C   0  0  0  0  0  0  0  0  0  0  0  0
   -1.9057    1.3043   -0.8852 C   0  0  3  0  0  0  0  0  0  0  0  0
   -2.7354    0.0928   -0.3886 C   0  0  3  0  0  0  0  0  0  0  0  0
   -4.2782    0.2858   -0.6427 C   0  0  3  0  0  0  0  0  0  0  0  0
   -2.1637   -1.2646   -0.8878 C   0  0  0  0  0  0  0  0  0  0  0  0
   -0.6409   -1.4003   -0.6913 C   0  0  0  0  0  0  0  0  0  0  0  0
    0.1434   -0.2363   -1.3328 C   0  0  3  0  0  0  0  0  0  0  0  0
   -0.4021    1.0409   -0.6586 C   0  0  3  0  0  0  0  0  0  0  0  0
    0.5780    2.1329   -1.0823 C   0  0  0  0  0  0  0  0  0  0  0  0
    1.9311    1.4091   -1.0998 C   0  0  0  0  0  0  0  0  0  0  0  0
    1.6409   -0.1015   -0.9245 C   0  0  3  0  0  0  0  0  0  0  0  0
   -0.0456   -0.2653   -2.8711 C   0  0  0  0  0  0  0  0  0  0  0  0
   -4.6303    0.1089   -2.1395 C   0  0  0  0  0  0  0  0  0  0  0  0
    2.7851   -1.0151   -1.4745 C   0  0  3  0  0  0  0  0  0  0  0  0
    3.1060   -0.9285   -2.9824 C   0  0  0  0  0  0  0  0  0  0  0  0
    2.6336   -2.5172   -1.1437 C   0  0  0  0  0  0  0  0  0  0  0  0
    2.5666   -2.8277    0.3642 C   0  0  0  0  0  0  0  0  0  0  0  0
    2.7314   -4.3207    0.7171 C   0  0  0  0  0  0  0  0  0  0  0  0
    1.5161   -5.2665    0.5884 C   0  0  0  0  0  0  0  0  0  0  0  0
    0.3316   -4.8230    1.4573 C   0  0  0  0  0  0  0  0  0  0  0  0
    1.0387   -5.4876   -0.8527 C   0  0  0  0  0  0  0  0  0  0  0  0
   -8.2872    1.0432    0.7961 O   0  0  0  0  0  0  0  0  0  0  0  0
  1  2  1  0  0  0  0
  1 10  1  0  0  0  0
  2  3  1  0  0  0  0
  3  4  1  0  0  0  0
  3 28  1  0  0  0  0
  4  5  1  0  0  0  0
  5  6  2  0  0  0  0
  5 10  1  0  0  0  0
  6  7  1  0  0  0  0
  7  8  1  0  0  0  0
  8  9  1  0  0  0  0
  8 14  1  0  0  0  0
  9 10  1  0  0  0  0
  9 11  1  0  0  0  0
 10 19  1  0  0  0  0
 11 12  1  0  0  0  0
 12 13  1  0  0  0  0
 13 14  1  0  0  0  0
 13 17  1  0  0  0  0
 13 18  1  0  0  0  0
 14 15  1  0  0  0  0
 15 16  1  0  0  0  0
 16 17  1  0  0  0  0
 17 20  1  0  0  0  0
 20 21  1  0  0  0  0
 20 22  1  0  0  0  0
 22 23  1  0  0  0  0
 23 24  1  0  0  0  0
 24 25  1  0  0  0  0
 25 26  1  0  0  0  0
 25 27  1  0  0  0  0
M  END
$$$$
CLR_2rh1_C_413
  PyMOL2.2          3D                             0

 28 31  0  0  1  0  0  0  0  0999 V2000
   -5.0653   -0.7617    0.1981 C   0  0  0  0  0  0  0  0  0  0  0  0
   -6.5886   -0.5444    0.2677 C   0  0  0  0  0  0  0  0  0  0  0  0
   -6.8866    0.8577    0.7949 C   0  0  3  0  0  0  0  0  0  0  0  0
   -6.2115    1.9318   -0.0646 C   0  0  0  0  0  0  0  0  0  0  0  0
   -4.7168    1.6982   -0.2213 C   0  0  0  0  0  0  0  0  0  0  0  0
   -3.8567    2.7109   -0.0240 C   0  0  0  0  0  0  0  0  0  0  0  0
   -2.3569    2.5802   -0.1515 C   0  0  0  0  0  0  0  0  0  0  0  0
   -1.9061    1.3045   -0.8852 C   0  0  3  0  0  0  0  0  0  0  0  0
   -2.7344    0.0922   -0.3890 C   0  0  3  0  0  0  0  0  0  0  0  0
   -4.2773    0.2854   -0.6425 C   0  0  3  0  0  0  0  0  0  0  0  0
   -2.1636   -1.2645   -0.8878 C   0  0  0  0  0  0  0  0  0  0  0  0
   -0.6403   -1.4004   -0.6936 C   0  0  0  0  0  0  0  0  0  0  0  0
    0.1419   -0.2359   -1.3409 C   0  0  3  0  0  0  0  0  0  0  0  0
   -0.4024    1.0389   -0.6596 C   0  0  3  0  0  0  0  0  0  0  0  0
    0.5784    2.1358   -1.0741 C   0  0  0  0  0  0  0  0  0  0  0  0
    1.9282    1.4062   -1.1333 C   0  0  0  0  0  0  0  0  0  0  0  0
    1.6367   -0.1000   -0.9275 C   0  0  3  0  0  0  0  0  0  0  0  0
   -0.0456   -0.2454   -2.8804 C   0  0  0  0  0  0  0  0  0  0  0  0
   -4.6307    0.1109   -2.1398 C   0  0  0  0  0  0  0  0  0  0  0  0
    2.7869   -1.0288   -1.4336 C   0  0  3  0  0  0  0  0  0  0  0  0
    3.2182   -0.9094   -2.9108 C   0  0  0  0  0  0  0  0  0  0  0  0
    2.6186   -2.5055   -0.9946 C   0  0  0  0  0  0  0  0  0  0  0  0
    2.0747   -3.4900   -2.0481 C   0  0  0  0  0  0  0  0  0  0  0  0
    1.7163   -4.8357   -1.3961 C   0  0  0  0  0  0  0  0  0  0  0  0
    1.2251   -5.8917   -2.4046 C   0  0  0  0  0  0  0  0  0  0  0  0
    1.0385   -7.2311   -1.6803 C   0  0  0  0  0  0  0  0  0  0  0  0
   -0.1042   -5.4990   -3.0663 C   0  0  0  0  0  0  0  0  0  0  0  0
   -8.2864    1.0410    0.8000 O   0  0  0  0  0  0  0  0  0  0  0  0
  1  2  1  0  0  0  0
  1 10  1  0  0  0  0
  2  3  1  0  0  0  0
  3  4  1  0  0  0  0
  3 28  1  0  0  0  0
  4  5  1  0  0  0  0
  5  6  2  0  0  0  0
  5 10  1  0  0  0  0
  6  7  1  0  0  0  0
  7  8  1  0  0  0  0
  8  9  1  0  0  0  0
  8 14  1  0  0  0  0
  9 10  1  0  0  0  0
  9 11  1  0  0  0  0
 10 19  1  0  0  0  0
 11 12  1  0  0  0  0
 12 13  1  0  0  0  0
 13 14  1  0  0  0  0
 13 17  1  0  0  0  0
 13 18  1  0  0  0  0
 14 15  1  0  0  0  0
 15 16  1  0  0  0  0
 16 17  1  0  0  0  0
 17 20  1  0  0  0  0
 20 21  1  0  0  0  0
 20 22  1  0  0  0  0
 22 23  1  0  0  0  0
 23 24  1  0  0  0  0
 24 25  1  0  0  0  0
 25 26  1  0  0  0  0
 25 27  1  0  0  0  0
M  END
$$$$
CLR_2rh1_C_413
  PyMOL2.2          3D                             0

 28 31  0  0  1  0  0  0  0  0999 V2000
   -5.0824   -0.7699    0.1825 C   0  0  0  0  0  0  0  0  0  0  0  0
   -6.6063   -0.5543    0.2356 C   0  0  0  0  0  0  0  0  0  0  0  0
   -6.9121    0.8499    0.7518 C   0  0  3  0  0  0  0  0  0  0  0  0
   -6.2315    1.9201   -0.1100 C   0  0  0  0  0  0  0  0  0  0  0  0
   -4.7347    1.6875   -0.2527 C   0  0  0  0  0  0  0  0  0  0  0  0
   -3.8795    2.7050   -0.0579 C   0  0  0  0  0  0  0  0  0  0  0  0
   -2.3779    2.5766   -0.1717 C   0  0  0  0  0  0  0  0  0  0  0  0
   -1.9149    1.2934   -0.8834 C   0  0  3  0  0  0  0  0  0  0  0  0
   -2.7478    0.0858   -0.3865 C   0  0  3  0  0  0  0  0  0  0  0  0
   -4.2883    0.2742   -0.6580 C   0  0  3  0  0  0  0  0  0  0  0  0
   -2.1676   -1.2718   -0.8726 C   0  0  0  0  0  0  0  0  0  0  0  0
   -0.6464   -1.4055   -0.6681 C   0  0  0  0  0  0  0  0  0  0  0  0
    0.1431   -0.2377   -1.3045 C   0  0  3  0  0  0  0  0  0  0  0  0
   -0.4140    1.0336   -0.6323 C   0  0  3  0  0  0  0  0  0  0  0  0
    0.5612    2.1334   -1.0405 C   0  0  0  0  0  0  0  0  0  0  0  0
    1.9111    1.4075   -1.0534 C   0  0  0  0  0  0  0  0  0  0  0  0
    1.6386   -0.1103   -0.8926 C   0  0  3  0  0  0  0  0  0  0  0  0
   -0.0042   -0.2564   -2.8507 C   0  0  0  0  0  0  0  0  0  0  0  0
   -4.6263    0.0882   -2.1577 C   0  0  0  0  0  0  0  0  0  0  0  0
    2.7341   -0.9740   -1.5924 C   0  0  3  0  0  0  0  0  0  0  0  0
    2.4423   -2.4818   -1.4869 C   0  0  0  0  0  0  0  0  0  0  0  0
    4.1283   -0.6618   -0.9850 C   0  0  0  0  0  0  0  0  0  0  0  0
    5.3238   -1.3663   -1.6623 C   0  0  0  0  0  0  0  0  0  0  0  0
    5.8628   -2.5955   -0.8952 C   0  0  0  0  0  0  0  0  0  0  0  0
    6.9819   -2.3501    0.1413 C   0  0  0  0  0  0  0  0  0  0  0  0
    8.2915   -1.8907   -0.5178 C   0  0  0  0  0  0  0  0  0  0  0  0
    6.5881   -1.3548    1.2395 C   0  0  0  0  0  0  0  0  0  0  0  0
   -8.3126    1.0309    0.7414 O   0  0  0  0  0  0  0  0  0  0  0  0
  1  2  1  0  0  0  0
  1 10  1  0  0  0  0
  2  3  1  0  0  0  0
  3  4  1  0  0  0  0
  3 28  1  0  0  0  0
  4  5  1  0  0  0  0
  5  6  2  0  0  0  0
  5 10  1  0  0  0  0
  6  7  1  0  0  0  0
  7  8  1  0  0  0  0
  8  9  1  0  0  0  0
  8 14  1  0  0  0  0
  9 10  1  0  0  0  0
  9 11  1  0  0  0  0
 10 19  1  0  0  0  0
 11 12  1  0  0  0  0
 12 13  1  0  0  0  0
 13 14  1  0  0  0  0
 13 17  1  0  0  0  0
 13 18  1  0  0  0  0
 14 15  1  0  0  0  0
 15 16  1  0  0  0  0
 16 17  1  0  0  0  0
 17 20  1  0  0  0  0
 20 21  1  0  0  0  0
 20 22  1  0  0  0  0
 22 23  1  0  0  0  0
 23 24  1  0  0  0  0
 24 25  1  0  0  0  0
 25 26  1  0  0  0  0
 25 27  1  0  0  0  0
M  END
$$$$
CLR_2rh1_C_413
  PyMOL2.2          3D                             0

 28 31  0  0  1  0  0  0  0  0999 V2000
   -5.0465   -0.7723    0.1923 C   0  0  0  0  0  0  0  0  0  0  0  0
   -6.5704   -0.5638    0.2691 C   0  0  0  0  0  0  0  0  0  0  0  0
   -6.8755    0.8328    0.8051 C   0  0  3  0  0  0  0  0  0  0  0  0
   -6.2116    1.9167   -0.0527 C   0  0  0  0  0  0  0  0  0  0  0  0
   -4.7147    1.6929   -0.2150 C   0  0  0  0  0  0  0  0  0  0  0  0
   -3.8616    2.7116   -0.0149 C   0  0  0  0  0  0  0  0  0  0  0  0
   -2.3614    2.5909   -0.1475 C   0  0  0  0  0  0  0  0  0  0  0  0
   -1.9064    1.3243   -0.8928 C   0  0  3  0  0  0  0  0  0  0  0  0
   -2.7233    0.1005   -0.4002 C   0  0  3  0  0  0  0  0  0  0  0  0
   -4.2683    0.2852   -0.6461 C   0  0  3  0  0  0  0  0  0  0  0  0
   -2.1465   -1.2561   -0.9039 C   0  0  0  0  0  0  0  0  0  0  0  0
   -0.6219   -1.3911   -0.7181 C   0  0  0  0  0  0  0  0  0  0  0  0
    0.1364   -0.2083   -1.3516 C   0  0  3  0  0  0  0  0  0  0  0  0
   -0.4005    1.0700   -0.6766 C   0  0  3  0  0  0  0  0  0  0  0  0
    0.5938    2.1511   -1.1096 C   0  0  0  0  0  0  0  0  0  0  0  0
    1.9448    1.4153   -1.1288 C   0  0  0  0  0  0  0  0  0  0  0  0
    1.6232   -0.0834   -0.9212 C   0  0  3  0  0  0  0  0  0  0  0  0
   -0.0656   -0.2202   -2.8908 C   0  0  0  0  0  0  0  0  0  0  0  0
   -4.6259    0.1161   -2.1434 C   0  0  0  0  0  0  0  0  0  0  0  0
    2.6911   -1.1408   -1.3411 C   0  0  3  0  0  0  0  0  0  0  0  0
    4.0082   -0.8448   -0.5943 C   0  0  0  0  0  0  0  0  0  0  0  0
    3.0199   -1.4397   -2.8265 C   0  0  0  0  0  0  0  0  0  0  0  0
    3.5500   -0.2916   -3.7025 C   0  0  0  0  0  0  0  0  0  0  0  0
    3.9951   -0.8261   -5.0761 C   0  0  0  0  0  0  0  0  0  0  0  0
    4.5095    0.2332   -6.0726 C   0  0  0  0  0  0  0  0  0  0  0  0
    3.4289    1.2572   -6.4470 C   0  0  0  0  0  0  0  0  0  0  0  0
    5.7535    0.9665   -5.5522 C   0  0  0  0  0  0  0  0  0  0  0  0
   -8.2769    1.0077    0.8152 O   0  0  0  0  0  0  0  0  0  0  0  0
  1  2  1  0  0  0  0
  1 10  1  0  0  0  0
  2  3  1  0  0  0  0
  3  4  1  0  0  0  0
  3 28  1  0  0  0  0
  4  5  1  0  0  0  0
  5  6  2  0  0  0  0
  5 10  1  0  0  0  0
  6  7  1  0  0  0  0
  7  8  1  0  0  0  0
  8  9  1  0  0  0  0
  8 14  1  0  0  0  0
  9 10  1  0  0  0  0
  9 11  1  0  0  0  0
 10 19  1  0  0  0  0
 11 12  1  0  0  0  0
 12 13  1  0  0  0  0
 13 14  1  0  0  0  0
 13 17  1  0  0  0  0
 13 18  1  0  0  0  0
 14 15  1  0  0  0  0
 15 16  1  0  0  0  0
 16 17  1  0  0  0  0
 17 20  1  0  0  0  0
 20 21  1  0  0  0  0
 20 22  1  0  0  0  0
 22 23  1  0  0  0  0
 23 24  1  0  0  0  0
 24 25  1  0  0  0  0
 25 26  1  0  0  0  0
 25 27  1  0  0  0  0
M  END
$$$$
CLR_2rh1_C_413
  PyMOL2.2          3D                             0

 28 31  0  0  1  0  0  0  0  0999 V2000
   -5.0924   -0.7695    0.2070 C   0  0  0  0  0  0  0  0  0  0  0  0
   -6.1818   -0.2293    1.1559 C   0  0  0  0  0  0  0  0  0  0  0  0
   -7.0502    0.8262    0.4748 C   0  0  3  0  0  0  0  0  0  0  0  0
   -6.2058    2.0107   -0.0277 C   0  0  0  0  0  0  0  0  0  0  0  0
   -4.7150    1.7205   -0.1830 C   0  0  0  0  0  0  0  0  0  0  0  0
   -3.8350    2.7119    0.0297 C   0  0  0  0  0  0  0  0  0  0  0  0
   -2.3370    2.5542   -0.0853 C   0  0  0  0  0  0  0  0  0  0  0  0
   -1.9062    1.2949   -0.8548 C   0  0  3  0  0  0  0  0  0  0  0  0
   -2.7528    0.0814   -0.3967 C   0  0  3  0  0  0  0  0  0  0  0  0
   -4.2975    0.3041   -0.6149 C   0  0  3  0  0  0  0  0  0  0  0  0
   -2.2123   -1.2561   -0.9756 C   0  0  0  0  0  0  0  0  0  0  0  0
   -0.6923   -1.4390   -0.7915 C   0  0  0  0  0  0  0  0  0  0  0  0
    0.1148   -0.2525   -1.3665 C   0  0  3  0  0  0  0  0  0  0  0  0
   -0.4089    0.9954   -0.6285 C   0  0  3  0  0  0  0  0  0  0  0  0
    0.5922    2.0915   -0.9855 C   0  0  0  0  0  0  0  0  0  0  0  0
    1.9254    1.3360   -1.0559 C   0  0  0  0  0  0  0  0  0  0  0  0
    1.6105   -0.1766   -0.9512 C   0  0  3  0  0  0  0  0  0  0  0  0
   -0.0373   -0.1950   -2.9106 C   0  0  0  0  0  0  0  0  0  0  0  0
   -4.6668    0.1801   -2.1153 C   0  0  0  0  0  0  0  0  0  0  0  0
    2.6726   -1.0420   -1.6931 C   0  0  3  0  0  0  0  0  0  0  0  0
    2.3885   -2.5507   -1.5888 C   0  0  0  0  0  0  0  0  0  0  0  0
    4.1237   -0.7677   -1.2232 C   0  0  0  0  0  0  0  0  0  0  0  0
    4.4085   -1.0486    0.2642 C   0  0  0  0  0  0  0  0  0  0  0  0
    5.8845   -0.7633    0.5898 C   0  0  0  0  0  0  0  0  0  0  0  0
    6.2740   -1.1303    2.0344 C   0  0  0  0  0  0  0  0  0  0  0  0
    7.7857   -0.9382    2.2122 C   0  0  0  0  0  0  0  0  0  0  0  0
    5.5410   -0.2766    3.0789 C   0  0  0  0  0  0  0  0  0  0  0  0
   -7.7343    0.2150   -0.5952 O   0  0  0  0  0  0  0  0  0  0  0  0
  1  2  1  0  0  0  0
  1 10  1  0  0  0  0
  2  3  1  0  0  0  0
  3  4  1  0  0  0  0
  3 28  1  0  0  0  0
  4  5  1  0  0  0  0
  5  6  2  0  0  0  0
  5 10  1  0  0  0  0
  6  7  1  0  0  0  0
  7  8  1  0  0  0  0
  8  9  1  0  0  0  0
  8 14  1  0  0  0  0
  9 10  1  0  0  0  0
  9 11  1  0  0  0  0
 10 19  1  0  0  0  0
 11 12  1  0  0  0  0
 12 13  1  0  0  0  0
 13 14  1  0  0  0  0
 13 17  1  0  0  0  0
 13 18  1  0  0  0  0
 14 15  1  0  0  0  0
 15 16  1  0  0  0  0
 16 17  1  0  0  0  0
 17 20  1  0  0  0  0
 20 21  1  0  0  0  0
 20 22  1  0  0  0  0
 22 23  1  0  0  0  0
 23 24  1  0  0  0  0
 24 25  1  0  0  0  0
 25 26  1  0  0  0  0
 25 27  1  0  0  0  0
M  END
$$$$
CLR_2rh1_C_413
  PyMOL2.2          3D                             0

 28 31  0  0  1  0  0  0  0  0999 V2000
   -5.2466   -0.6621   -0.0316 C   0  0  0  0  0  0  0  0  0  0  0  0
   -5.7301   -0.2134    1.3605 C   0  0  0  0  0  0  0  0  0  0  0  0
   -6.5945    1.0571    1.2650 C   0  0  3  0  0  0  0  0  0  0  0  0
   -6.1825    1.9769    0.0993 C   0  0  0  0  0  0  0  0  0  0  0  0
   -4.7198    1.7868   -0.2590 C   0  0  0  0  0  0  0  0  0  0  0  0
   -3.8392    2.7818   -0.0717 C   0  0  0  0  0  0  0  0  0  0  0  0
   -2.3496    2.6304   -0.2711 C   0  0  0  0  0  0  0  0  0  0  0  0
   -1.9236    1.3144   -0.9478 C   0  0  3  0  0  0  0  0  0  0  0  0
   -2.8057    0.1277   -0.4692 C   0  0  3  0  0  0  0  0  0  0  0  0
   -4.3343    0.3861   -0.7557 C   0  0  3  0  0  0  0  0  0  0  0  0
   -2.2567   -1.2283   -1.0047 C   0  0  0  0  0  0  0  0  0  0  0  0
   -0.7434   -1.4217   -0.7837 C   0  0  0  0  0  0  0  0  0  0  0  0
    0.0940   -0.2604   -1.3626 C   0  0  3  0  0  0  0  0  0  0  0  0
   -0.4372    1.0083   -0.6686 C   0  0  3  0  0  0  0  0  0  0  0  0
    0.5860    2.0856   -1.0254 C   0  0  0  0  0  0  0  0  0  0  0  0
    1.9128    1.3149   -1.0391 C   0  0  0  0  0  0  0  0  0  0  0  0
    1.5785   -0.1903   -0.9064 C   0  0  3  0  0  0  0  0  0  0  0  0
   -0.0119   -0.2435   -2.9120 C   0  0  0  0  0  0  0  0  0  0  0  0
   -4.6466    0.3290   -2.2702 C   0  0  0  0  0  0  0  0  0  0  0  0
    2.6516   -1.0861   -1.5936 C   0  0  3  0  0  0  0  0  0  0  0  0
    2.3475   -2.5877   -1.4581 C   0  0  0  0  0  0  0  0  0  0  0  0
    4.0910   -0.8151   -1.0887 C   0  0  0  0  0  0  0  0  0  0  0  0
    4.3298   -1.0594    0.4142 C   0  0  0  0  0  0  0  0  0  0  0  0
    5.7979   -0.7804    0.7751 C   0  0  0  0  0  0  0  0  0  0  0  0
    6.1416   -1.1141    2.2393 C   0  0  0  0  0  0  0  0  0  0  0  0
    7.6497   -0.9308    2.4568 C   0  0  0  0  0  0  0  0  0  0  0  0
    5.3867   -0.2258    3.2400 C   0  0  0  0  0  0  0  0  0  0  0  0
   -7.9476    0.6791    1.1242 O   0  0  0  0  0  0  0  0  0  0  0  0
  1  2  1  0  0  0  0
  1 10  1  0  0  0  0
  2  3  1  0  0  0  0
  3  4  1  0  0  0  0
  3 28  1  0  0  0  0
  4  5  1  0  0  0  0
  5  6  2  0  0  0  0
  5 10  1  0  0  0  0
  6  7  1  0  0  0  0
  7  8  1  0  0  0  0
  8  9  1  0  0  0  0
  8 14  1  0  0  0  0
  9 10  1  0  0  0  0
  9 11  1  0  0  0  0
 10 19  1  0  0  0  0
 11 12  1  0  0  0  0
 12 13  1  0  0  0  0
 13 14  1  0  0  0  0
 13 17  1  0  0  0  0
 13 18  1  0  0  0  0
 14 15  1  0  0  0  0
 15 16  1  0  0  0  0
 16 17  1  0  0  0  0
 17 20  1  0  0  0  0
 20 21  1  0  0  0  0
 20 22  1  0  0  0  0
 22 23  1  0  0  0  0
 23 24  1  0  0  0  0
 24 25  1  0  0  0  0
 25 26  1  0  0  0  0
 25 27  1  0  0  0  0
M  END
$$$$
CLR_2rh1_C_413
  PyMOL2.2          3D                             0

 28 31  0  0  1  0  0  0  0  0999 V2000
   -5.1235   -0.7759    0.1523 C   0  0  0  0  0  0  0  0  0  0  0  0
   -6.2405   -0.2159    1.0561 C   0  0  0  0  0  0  0  0  0  0  0  0
   -7.0953    0.8154    0.3241 C   0  0  3  0  0  0  0  0  0  0  0  0
   -6.2445    1.9903   -0.1877 C   0  0  0  0  0  0  0  0  0  0  0  0
   -4.7480    1.7050   -0.2958 C   0  0  0  0  0  0  0  0  0  0  0  0
   -3.8785    2.7071   -0.0868 C   0  0  0  0  0  0  0  0  0  0  0  0
   -2.3782    2.5545   -0.1588 C   0  0  0  0  0  0  0  0  0  0  0  0
   -1.9202    1.2770   -0.8818 C   0  0  3  0  0  0  0  0  0  0  0  0
   -2.7728    0.0725   -0.4123 C   0  0  3  0  0  0  0  0  0  0  0  0
   -4.3127    0.2798   -0.6784 C   0  0  3  0  0  0  0  0  0  0  0  0
   -2.2104   -1.2786   -0.9404 C   0  0  0  0  0  0  0  0  0  0  0  0
   -0.6950   -1.4468   -0.7117 C   0  0  0  0  0  0  0  0  0  0  0  0
    0.1207   -0.2717   -1.2986 C   0  0  3  0  0  0  0  0  0  0  0  0
   -0.4284    0.9929   -0.6087 C   0  0  3  0  0  0  0  0  0  0  0  0
    0.5770    2.0845   -0.9711 C   0  0  0  0  0  0  0  0  0  0  0  0
    1.9154    1.3347   -0.9872 C   0  0  0  0  0  0  0  0  0  0  0  0
    1.6052   -0.1758   -0.8487 C   0  0  3  0  0  0  0  0  0  0  0  0
    0.0079   -0.2574   -2.8471 C   0  0  0  0  0  0  0  0  0  0  0  0
   -4.6413    0.1128   -2.1833 C   0  0  0  0  0  0  0  0  0  0  0  0
    2.6898   -1.0552   -1.5387 C   0  0  3  0  0  0  0  0  0  0  0  0
    2.4099   -2.5618   -1.4015 C   0  0  0  0  0  0  0  0  0  0  0  0
    4.1261   -0.7599   -1.0365 C   0  0  0  0  0  0  0  0  0  0  0  0
    4.3697   -0.9917    0.4666 C   0  0  0  0  0  0  0  0  0  0  0  0
    5.8392   -0.7096    0.8206 C   0  0  0  0  0  0  0  0  0  0  0  0
    6.1311   -0.7917    2.3303 C   0  0  0  0  0  0  0  0  0  0  0  0
    5.9220   -2.2040    2.8962 C   0  0  0  0  0  0  0  0  0  0  0  0
    7.5831   -0.3667    2.5872 C   0  0  0  0  0  0  0  0  0  0  0  0
   -7.7480    0.1715   -0.7469 O   0  0  0  0  0  0  0  0  0  0  0  0
  1  2  1  0  0  0  0
  1 10  1  0  0  0  0
  2  3  1  0  0  0  0
  3  4  1  0  0  0  0
  3 28  1  0  0  0  0
  4  5  1  0  0  0  0
  5  6  2  0  0  0  0
  5 10  1  0  0  0  0
  6  7  1  0  0  0  0
  7  8  1  0  0  0  0
  8  9  1  0  0  0  0
  8 14  1  0  0  0  0
  9 10  1  0  0  0  0
  9 11  1  0  0  0  0
 10 19  1  0  0  0  0
 11 12  1  0  0  0  0
 12 13  1  0  0  0  0
 13 14  1  0  0  0  0
 13 17  1  0  0  0  0
 13 18  1  0  0  0  0
 14 15  1  0  0  0  0
 15 16  1  0  0  0  0
 16 17  1  0  0  0  0
 17 20  1  0  0  0  0
 20 21  1  0  0  0  0
 20 22  1  0  0  0  0
 22 23  1  0  0  0  0
 23 24  1  0  0  0  0
 24 25  1  0  0  0  0
 25 26  1  0  0  0  0
 25 27  1  0  0  0  0
M  END
$$$$
CLR_2rh1_C_413
  PyMOL2.2          3D                             0

 28 31  0  0  1  0  0  0  0  0999 V2000
   -5.2247   -0.7556   -0.0366 C   0  0  0  0  0  0  0  0  0  0  0  0
   -5.7407   -0.2867    1.3370 C   0  0  0  0  0  0  0  0  0  0  0  0
   -6.6274    0.9646    1.1995 C   0  0  3  0  0  0  0  0  0  0  0  0
   -6.2141    1.8669    0.0203 C   0  0  0  0  0  0  0  0  0  0  0  0
   -4.7421    1.6978   -0.3106 C   0  0  0  0  0  0  0  0  0  0  0  0
   -3.8837    2.7131   -0.1309 C   0  0  0  0  0  0  0  0  0  0  0  0
   -2.3886    2.5875   -0.3036 C   0  0  0  0  0  0  0  0  0  0  0  0
   -1.9264    1.2657   -0.9443 C   0  0  3  0  0  0  0  0  0  0  0  0
   -2.7934    0.0717   -0.4534 C   0  0  3  0  0  0  0  0  0  0  0  0
   -4.3217    0.2939   -0.7699 C   0  0  3  0  0  0  0  0  0  0  0  0
   -2.2097   -1.2841   -0.9497 C   0  0  0  0  0  0  0  0  0  0  0  0
   -0.6967   -1.4437   -0.7016 C   0  0  0  0  0  0  0  0  0  0  0  0
    0.1276   -0.2789   -1.2934 C   0  0  3  0  0  0  0  0  0  0  0  0
   -0.4393    0.9941   -0.6356 C   0  0  3  0  0  0  0  0  0  0  0  0
    0.5696    2.0830   -1.0002 C   0  0  0  0  0  0  0  0  0  0  0  0
    1.9108    1.3384   -0.9771 C   0  0  0  0  0  0  0  0  0  0  0  0
    1.6025   -0.1700   -0.8160 C   0  0  3  0  0  0  0  0  0  0  0  0
    0.0449   -0.2974   -2.8440 C   0  0  0  0  0  0  0  0  0  0  0  0
   -4.6077    0.1986   -2.2878 C   0  0  0  0  0  0  0  0  0  0  0  0
    2.7033   -1.0590   -1.4659 C   0  0  3  0  0  0  0  0  0  0  0  0
    2.4247   -2.5642   -1.3040 C   0  0  0  0  0  0  0  0  0  0  0  0
    4.1286   -0.7505   -0.9417 C   0  0  0  0  0  0  0  0  0  0  0  0
    4.3429   -0.9523    0.5698 C   0  0  0  0  0  0  0  0  0  0  0  0
    5.8029   -0.6543    0.9481 C   0  0  0  0  0  0  0  0  0  0  0  0
    6.0655   -0.7081    2.4652 C   0  0  0  0  0  0  0  0  0  0  0  0
    5.8542   -2.1115    3.0508 C   0  0  0  0  0  0  0  0  0  0  0  0
    7.5082   -0.2681    2.7438 C   0  0  0  0  0  0  0  0  0  0  0  0
   -7.9699    0.5563    1.0447 O   0  0  0  0  0  0  0  0  0  0  0  0
  1  2  1  0  0  0  0
  1 10  1  0  0  0  0
  2  3  1  0  0  0  0
  3  4  1  0  0  0  0
  3 28  1  0  0  0  0
  4  5  1  0  0  0  0
  5  6  2  0  0  0  0
  5 10  1  0  0  0  0
  6  7  1  0  0  0  0
  7  8  1  0  0  0  0
  8  9  1  0  0  0  0
  8 14  1  0  0  0  0
  9 10  1  0  0  0  0
  9 11  1  0  0  0  0
 10 19  1  0  0  0  0
 11 12  1  0  0  0  0
 12 13  1  0  0  0  0
 13 14  1  0  0  0  0
 13 17  1  0  0  0  0
 13 18  1  0  0  0  0
 14 15  1  0  0  0  0
 15 16  1  0  0  0  0
 16 17  1  0  0  0  0
 17 20  1  0  0  0  0
 20 21  1  0  0  0  0
 20 22  1  0  0  0  0
 22 23  1  0  0  0  0
 23 24  1  0  0  0  0
 24 25  1  0  0  0  0
 25 26  1  0  0  0  0
 25 27  1  0  0  0  0
M  END
$$$$
CLR_2rh1_C_413
  PyMOL2.2          3D                             0

 28 31  0  0  1  0  0  0  0  0999 V2000
   -5.0637   -0.7610    0.2016 C   0  0  0  0  0  0  0  0  0  0  0  0
   -6.5869   -0.5431    0.2741 C   0  0  0  0  0  0  0  0  0  0  0  0
   -6.8840    0.8593    0.8009 C   0  0  3  0  0  0  0  0  0  0  0  0
   -6.2123    1.9325   -0.0624 C   0  0  0  0  0  0  0  0  0  0  0  0
   -4.7170    1.6982   -0.2232 C   0  0  0  0  0  0  0  0  0  0  0  0
   -3.8571    2.7130   -0.0318 C   0  0  0  0  0  0  0  0  0  0  0  0
   -2.3585    2.5825   -0.1633 C   0  0  0  0  0  0  0  0  0  0  0  0
   -1.9072    1.3036   -0.8909 C   0  0  3  0  0  0  0  0  0  0  0  0
   -2.7350    0.0934   -0.3911 C   0  0  3  0  0  0  0  0  0  0  0  0
   -4.2775    0.2855   -0.6426 C   0  0  3  0  0  0  0  0  0  0  0  0
   -2.1642   -1.2635   -0.8905 C   0  0  0  0  0  0  0  0  0  0  0  0
   -0.6400   -1.4067   -0.7033 C   0  0  0  0  0  0  0  0  0  0  0  0
    0.1430   -0.2355   -1.3382 C   0  0  3  0  0  0  0  0  0  0  0  0
   -0.4036    1.0398   -0.6616 C   0  0  3  0  0  0  0  0  0  0  0  0
    0.5781    2.1341   -1.0797 C   0  0  0  0  0  0  0  0  0  0  0  0
    1.9326    1.4106   -1.0873 C   0  0  0  0  0  0  0  0  0  0  0  0
    1.6369   -0.1001   -0.9217 C   0  0  3  0  0  0  0  0  0  0  0  0
   -0.0376   -0.2597   -2.8770 C   0  0  0  0  0  0  0  0  0  0  0  0
   -4.6336    0.1081   -2.1388 C   0  0  0  0  0  0  0  0  0  0  0  0
    2.7770   -1.0192   -1.4609 C   0  0  3  0  0  0  0  0  0  0  0  0
    3.0956   -0.9463   -2.9687 C   0  0  0  0  0  0  0  0  0  0  0  0
    2.5598   -2.4870   -1.0278 C   0  0  0  0  0  0  0  0  0  0  0  0
    3.7978   -3.3991   -1.1547 C   0  0  0  0  0  0  0  0  0  0  0  0
    3.7792   -4.2640   -2.4298 C   0  0  0  0  0  0  0  0  0  0  0  0
    4.9598   -5.2493   -2.5176 C   0  0  0  0  0  0  0  0  0  0  0  0
    4.7599   -6.1684   -3.7301 C   0  0  0  0  0  0  0  0  0  0  0  0
    6.3130   -4.5363   -2.6579 C   0  0  0  0  0  0  0  0  0  0  0  0
   -8.2839    1.0425    0.8082 O   0  0  0  0  0  0  0  0  0  0  0  0
  1  2  1  0  0  0  0
  1 10  1  0  0  0  0
  2  3  1  0  0  0  0
  3  4  1  0  0  0  0
  3 28  1  0  0  0  0
  4  5  1  0  0  0  0
  5  6  2  0  0  0  0
  5 10  1  0  0  0  0
  6  7  1  0  0  0  0
  7  8  1  0  0  0  0
  8  9  1  0  0  0  0
  8 14  1  0  0  0  0
  9 10  1  0  0  0  0
  9 11  1  0  0  0  0
 10 19  1  0  0  0  0
 11 12  1  0  0  0  0
 12 13  1  0  0  0  0
 13 14  1  0  0  0  0
 13 17  1  0  0  0  0
 13 18  1  0  0  0  0
 14 15  1  0  0  0  0
 15 16  1  0  0  0  0
 16 17  1  0  0  0  0
 17 20  1  0  0  0  0
 20 21  1  0  0  0  0
 20 22  1  0  0  0  0
 22 23  1  0  0  0  0
 23 24  1  0  0  0  0
 24 25  1  0  0  0  0
 25 26  1  0  0  0  0
 25 27  1  0  0  0  0
M  END
$$$$
CLR_2rh1_C_413
  PyMOL2.2          3D                             0

 28 31  0  0  1  0  0  0  0  0999 V2000
   -5.0489   -0.7688    0.1957 C   0  0  0  0  0  0  0  0  0  0  0  0
   -6.5731   -0.5623    0.2657 C   0  0  0  0  0  0  0  0  0  0  0  0
   -6.8822    0.8372    0.7961 C   0  0  3  0  0  0  0  0  0  0  0  0
   -6.2115    1.9184   -0.0575 C   0  0  0  0  0  0  0  0  0  0  0  0
   -4.7147    1.6922   -0.2165 C   0  0  0  0  0  0  0  0  0  0  0  0
   -3.8605    2.7093   -0.0123 C   0  0  0  0  0  0  0  0  0  0  0  0
   -2.3604    2.5880   -0.1401 C   0  0  0  0  0  0  0  0  0  0  0  0
   -1.9059    1.3239   -0.8876 C   0  0  3  0  0  0  0  0  0  0  0  0
   -2.7238    0.0983   -0.3987 C   0  0  3  0  0  0  0  0  0  0  0  0
   -4.2686    0.2847   -0.6453 C   0  0  3  0  0  0  0  0  0  0  0  0
   -2.1472   -1.2557   -0.9050 C   0  0  0  0  0  0  0  0  0  0  0  0
   -0.6237   -1.3918   -0.7113 C   0  0  0  0  0  0  0  0  0  0  0  0
    0.1375   -0.2103   -1.3451 C   0  0  3  0  0  0  0  0  0  0  0  0
   -0.4001    1.0669   -0.6702 C   0  0  3  0  0  0  0  0  0  0  0  0
    0.5949    2.1502   -1.1002 C   0  0  0  0  0  0  0  0  0  0  0  0
    1.9418    1.4062   -1.1609 C   0  0  0  0  0  0  0  0  0  0  0  0
    1.6227   -0.0854   -0.9092 C   0  0  3  0  0  0  0  0  0  0  0  0
   -0.0602   -0.2216   -2.8848 C   0  0  0  0  0  0  0  0  0  0  0  0
   -4.6252    0.1144   -2.1423 C   0  0  0  0  0  0  0  0  0  0  0  0
    2.6983   -1.1222   -1.3585 C   0  0  3  0  0  0  0  0  0  0  0  0
    3.9398   -0.9362   -0.4597 C   0  0  0  0  0  0  0  0  0  0  0  0
    3.1297   -1.0908   -2.8498 C   0  0  0  0  0  0  0  0  0  0  0  0
    4.2390   -2.0744   -3.2754 C   0  0  0  0  0  0  0  0  0  0  0  0
    4.0357   -3.5722   -2.9658 C   0  0  0  0  0  0  0  0  0  0  0  0
    2.9281   -4.2790   -3.7790 C   0  0  0  0  0  0  0  0  0  0  0  0
    3.2924   -5.7581   -3.9691 C   0  0  0  0  0  0  0  0  0  0  0  0
    1.5590   -4.2270   -3.0871 C   0  0  0  0  0  0  0  0  0  0  0  0
   -8.2813    1.0213    0.7923 O   0  0  0  0  0  0  0  0  0  0  0  0
  1  2  1  0  0  0  0
  1 10  1  0  0  0  0
  2  3  1  0  0  0  0
  3  4  1  0  0  0  0
  3 28  1  0  0  0  0
  4  5  1  0  0  0  0
  5  6  2  0  0  0  0
  5 10  1  0  0  0  0
  6  7  1  0  0  0  0
  7  8  1  0  0  0  0
  8  9  1  0  0  0  0
  8 14  1  0  0  0  0
  9 10  1  0  0  0  0
  9 11  1  0  0  0  0
 10 19  1  0  0  0  0
 11 12  1  0  0  0  0
 12 13  1  0  0  0  0
 13 14  1  0  0  0  0
 13 17  1  0  0  0  0
 13 18  1  0  0  0  0
 14 15  1  0  0  0  0
 15 16  1  0  0  0  0
 16 17  1  0  0  0  0
 17 20  1  0  0  0  0
 20 21  1  0  0  0  0
 20 22  1  0  0  0  0
 22 23  1  0  0  0  0
 23 24  1  0  0  0  0
 24 25  1  0  0  0  0
 25 26  1  0  0  0  0
 25 27  1  0  0  0  0
M  END
$$$$
CLR_2rh1_C_413
  PyMOL2.2          3D                             0

 28 31  0  0  1  0  0  0  0  0999 V2000
   -5.0658   -0.7581    0.2036 C   0  0  0  0  0  0  0  0  0  0  0  0
   -6.5899   -0.5464    0.2613 C   0  0  0  0  0  0  0  0  0  0  0  0
   -6.8959    0.8574    0.7832 C   0  0  3  0  0  0  0  0  0  0  0  0
   -6.2107    1.9379   -0.0620 C   0  0  0  0  0  0  0  0  0  0  0  0
   -4.7162    1.6984   -0.2211 C   0  0  0  0  0  0  0  0  0  0  0  0
   -3.8558    2.7122   -0.0256 C   0  0  0  0  0  0  0  0  0  0  0  0
   -2.3567    2.5803   -0.1527 C   0  0  0  0  0  0  0  0  0  0  0  0
   -1.9053    1.3037   -0.8830 C   0  0  3  0  0  0  0  0  0  0  0  0
   -2.7341    0.0921   -0.3863 C   0  0  3  0  0  0  0  0  0  0  0  0
   -4.2768    0.2866   -0.6407 C   0  0  3  0  0  0  0  0  0  0  0  0
   -2.1639   -1.2645   -0.8847 C   0  0  0  0  0  0  0  0  0  0  0  0
   -0.6401   -1.4026   -0.6905 C   0  0  0  0  0  0  0  0  0  0  0  0
    0.1436   -0.2372   -1.3326 C   0  0  3  0  0  0  0  0  0  0  0  0
   -0.4015    1.0400   -0.6586 C   0  0  3  0  0  0  0  0  0  0  0  0
    0.5779    2.1329   -1.0840 C   0  0  0  0  0  0  0  0  0  0  0  0
    1.9312    1.4099   -1.1054 C   0  0  0  0  0  0  0  0  0  0  0  0
    1.6415   -0.1004   -0.9257 C   0  0  3  0  0  0  0  0  0  0  0  0
   -0.0472   -0.2659   -2.8698 C   0  0  0  0  0  0  0  0  0  0  0  0
   -4.6301    0.1090   -2.1376 C   0  0  0  0  0  0  0  0  0  0  0  0
    2.7853   -1.0137   -1.4756 C   0  0  3  0  0  0  0  0  0  0  0  0
    3.1002   -0.9319   -2.9852 C   0  0  0  0  0  0  0  0  0  0  0  0
    2.6402   -2.5155   -1.1390 C   0  0  0  0  0  0  0  0  0  0  0  0
    2.5916   -2.8252    0.3701 C   0  0  0  0  0  0  0  0  0  0  0  0
    2.6098   -4.3371    0.6661 C   0  0  0  0  0  0  0  0  0  0  0  0
    3.9911   -4.9046    1.0537 C   0  0  0  0  0  0  0  0  0  0  0  0
    3.8416   -6.3914    1.4016 C   0  0  0  0  0  0  0  0  0  0  0  0
    5.0435   -4.7613   -0.0534 C   0  0  0  0  0  0  0  0  0  0  0  0
   -8.2940    1.0435    0.7760 O   0  0  0  0  0  0  0  0  0  0  0  0
  1  2  1  0  0  0  0
  1 10  1  0  0  0  0
  2  3  1  0  0  0  0
  3  4  1  0  0  0  0
  3 28  1  0  0  0  0
  4  5  1  0  0  0  0
  5  6  2  0  0  0  0
  5 10  1  0  0  0  0
  6  7  1  0  0  0  0
  7  8  1  0  0  0  0
  8  9  1  0  0  0  0
  8 14  1  0  0  0  0
  9 10  1  0  0  0  0
  9 11  1  0  0  0  0
 10 19  1  0  0  0  0
 11 12  1  0  0  0  0
 12 13  1  0  0  0  0
 13 14  1  0  0  0  0
 13 17  1  0  0  0  0
 13 18  1  0  0  0  0
 14 15  1  0  0  0  0
 15 16  1  0  0  0  0
 16 17  1  0  0  0  0
 17 20  1  0  0  0  0
 20 21  1  0  0  0  0
 20 22  1  0  0  0  0
 22 23  1  0  0  0  0
 23 24  1  0  0  0  0
 24 25  1  0  0  0  0
 25 26  1  0  0  0  0
 25 27  1  0  0  0  0
M  END
$$$$
CLR_2rh1_C_413
  PyMOL2.2          3D                             0

 28 31  0  0  1  0  0  0  0  0999 V2000
   -5.0271   -0.7343    0.2658 C   0  0  0  0  0  0  0  0  0  0  0  0
   -6.5489   -0.5172    0.3539 C   0  0  0  0  0  0  0  0  0  0  0  0
   -6.8407    0.8874    0.8788 C   0  0  3  0  0  0  0  0  0  0  0  0
   -6.1800    1.9568    0.0031 C   0  0  0  0  0  0  0  0  0  0  0  0
   -4.6869    1.7245   -0.1743 C   0  0  0  0  0  0  0  0  0  0  0  0
   -3.8267    2.7414    0.0012 C   0  0  0  0  0  0  0  0  0  0  0  0
   -2.3290    2.6133   -0.1475 C   0  0  0  0  0  0  0  0  0  0  0  0
   -1.8842    1.3318   -0.8718 C   0  0  3  0  0  0  0  0  0  0  0  0
   -2.7042    0.1191   -0.3555 C   0  0  3  0  0  0  0  0  0  0  0  0
   -4.2507    0.3097   -0.5911 C   0  0  3  0  0  0  0  0  0  0  0  0
   -2.1417   -1.2494   -0.8419 C   0  0  0  0  0  0  0  0  0  0  0  0
   -0.6117   -1.3869   -0.6979 C   0  0  0  0  0  0  0  0  0  0  0  0
    0.1363   -0.2033   -1.3428 C   0  0  3  0  0  0  0  0  0  0  0  0
   -0.3799    1.0720   -0.6532 C   0  0  3  0  0  0  0  0  0  0  0  0
    0.6209    2.1523   -1.0738 C   0  0  0  0  0  0  0  0  0  0  0  0
    1.9565    1.3962   -1.2018 C   0  0  0  0  0  0  0  0  0  0  0  0
    1.6325   -0.0971   -0.9573 C   0  0  3  0  0  0  0  0  0  0  0  0
   -0.0708   -0.2150   -2.8822 C   0  0  0  0  0  0  0  0  0  0  0  0
   -4.6237    0.1269   -2.0834 C   0  0  0  0  0  0  0  0  0  0  0  0
    2.5936   -1.2011   -1.5126 C   0  0  3  0  0  0  0  0  0  0  0  0
    3.2042   -1.9690   -0.3233 C   0  0  0  0  0  0  0  0  0  0  0  0
    3.7749   -0.7460   -2.4084 C   0  0  0  0  0  0  0  0  0  0  0  0
    3.4338   -0.4357   -3.8785 C   0  0  0  0  0  0  0  0  0  0  0  0
    3.1285   -1.7042   -4.7021 C   0  0  0  0  0  0  0  0  0  0  0  0
    2.7949   -1.4703   -6.1899 C   0  0  0  0  0  0  0  0  0  0  0  0
    1.5089   -0.6538   -6.3801 C   0  0  0  0  0  0  0  0  0  0  0  0
    3.9467   -0.8011   -6.9527 C   0  0  0  0  0  0  0  0  0  0  0  0
   -8.2404    1.0694    0.9021 O   0  0  0  0  0  0  0  0  0  0  0  0
  1  2  1  0  0  0  0
  1 10  1  0  0  0  0
  2  3  1  0  0  0  0
  3  4  1  0  0  0  0
  3 28  1  0  0  0  0
  4  5  1  0  0  0  0
  5  6  2  0  0  0  0
  5 10  1  0  0  0  0
  6  7  1  0  0  0  0
  7  8  1  0  0  0  0
  8  9  1  0  0  0  0
  8 14  1  0  0  0  0
  9 10  1  0  0  0  0
  9 11  1  0  0  0  0
 10 19  1  0  0  0  0
 11 12  1  0  0  0  0
 12 13  1  0  0  0  0
 13 14  1  0  0  0  0
 13 17  1  0  0  0  0
 13 18  1  0  0  0  0
 14 15  1  0  0  0  0
 15 16  1  0  0  0  0
 16 17  1  0  0  0  0
 17 20  1  0  0  0  0
 20 21  1  0  0  0  0
 20 22  1  0  0  0  0
 22 23  1  0  0  0  0
 23 24  1  0  0  0  0
 24 25  1  0  0  0  0
 25 26  1  0  0  0  0
 25 27  1  0  0  0  0
M  END
$$$$
CLR_2rh1_C_413
  PyMOL2.2          3D                             0

 28 31  0  0  1  0  0  0  0  0999 V2000
   -5.1323   -0.8360    0.0063 C   0  0  0  0  0  0  0  0  0  0  0  0
   -6.6656   -0.6318   -0.0217 C   0  0  0  0  0  0  0  0  0  0  0  0
   -7.1245    0.8158    0.2345 C   0  0  3  0  0  0  0  0  0  0  0  0
   -6.0241    1.7042    0.8261 C   0  0  0  0  0  0  0  0  0  0  0  0
   -4.6772    1.6213    0.1165 C   0  0  0  0  0  0  0  0  0  0  0  0
   -3.8186    2.6491    0.2218 C   0  0  0  0  0  0  0  0  0  0  0  0
   -2.3851    2.6182   -0.2754 C   0  0  0  0  0  0  0  0  0  0  0  0
   -1.9322    1.2845   -0.9143 C   0  0  3  0  0  0  0  0  0  0  0  0
   -2.7603    0.0901   -0.3709 C   0  0  3  0  0  0  0  0  0  0  0  0
   -4.2969    0.3215   -0.6012 C   0  0  3  0  0  0  0  0  0  0  0  0
   -2.2149   -1.2803   -0.8608 C   0  0  0  0  0  0  0  0  0  0  0  0
   -0.6891   -1.4275   -0.6957 C   0  0  0  0  0  0  0  0  0  0  0  0
    0.0962   -0.2673   -1.3483 C   0  0  3  0  0  0  0  0  0  0  0  0
   -0.4321    1.0187   -0.6792 C   0  0  3  0  0  0  0  0  0  0  0  0
    0.5512    2.1010   -1.1200 C   0  0  0  0  0  0  0  0  0  0  0  0
    1.8916    1.3563   -1.1617 C   0  0  0  0  0  0  0  0  0  0  0  0
    1.5963   -0.1483   -0.9572 C   0  0  3  0  0  0  0  0  0  0  0  0
   -0.0742   -0.3129   -2.8909 C   0  0  0  0  0  0  0  0  0  0  0  0
   -4.6186    0.4558   -2.1143 C   0  0  0  0  0  0  0  0  0  0  0  0
    2.6607   -1.0482   -1.6539 C   0  0  3  0  0  0  0  0  0  0  0  0
    2.3897   -2.5514   -1.4616 C   0  0  0  0  0  0  0  0  0  0  0  0
    4.1103   -0.7319   -1.2086 C   0  0  0  0  0  0  0  0  0  0  0  0
    4.4005   -0.9010    0.2970 C   0  0  0  0  0  0  0  0  0  0  0  0
    5.8922   -0.7371    0.6457 C   0  0  0  0  0  0  0  0  0  0  0  0
    6.5281    0.6261    0.3002 C   0  0  0  0  0  0  0  0  0  0  0  0
    5.8370    1.7952    1.0161 C   0  0  0  0  0  0  0  0  0  0  0  0
    8.0085    0.6048    0.7026 C   0  0  0  0  0  0  0  0  0  0  0  0
   -7.5757    1.3927   -0.9669 O   0  0  0  0  0  0  0  0  0  0  0  0
  1  2  1  0  0  0  0
  1 10  1  0  0  0  0
  2  3  1  0  0  0  0
  3  4  1  0  0  0  0
  3 28  1  0  0  0  0
  4  5  1  0  0  0  0
  5  6  2  0  0  0  0
  5 10  1  0  0  0  0
  6  7  1  0  0  0  0
  7  8  1  0  0  0  0
  8  9  1  0  0  0  0
  8 14  1  0  0  0  0
  9 10  1  0  0  0  0
  9 11  1  0  0  0  0
 10 19  1  0  0  0  0
 11 12  1  0  0  0  0
 12 13  1  0  0  0  0
 13 14  1  0  0  0  0
 13 17  1  0  0  0  0
 13 18  1  0  0  0  0
 14 15  1  0  0  0  0
 15 16  1  0  0  0  0
 16 17  1  0  0  0  0
 17 20  1  0  0  0  0
 20 21  1  0  0  0  0
 20 22  1  0  0  0  0
 22 23  1  0  0  0  0
 23 24  1  0  0  0  0
 24 25  1  0  0  0  0
 25 26  1  0  0  0  0
 25 27  1  0  0  0  0
M  END
$$$$
CLR_2rh1_C_413
  PyMOL2.2          3D                             0

 28 31  0  0  1  0  0  0  0  0999 V2000
   -5.0638   -0.7615    0.2009 C   0  0  0  0  0  0  0  0  0  0  0  0
   -6.5858   -0.5449    0.2735 C   0  0  0  0  0  0  0  0  0  0  0  0
   -6.8836    0.8569    0.8009 C   0  0  3  0  0  0  0  0  0  0  0  0
   -6.2116    1.9310   -0.0616 C   0  0  0  0  0  0  0  0  0  0  0  0
   -4.7165    1.6978   -0.2229 C   0  0  0  0  0  0  0  0  0  0  0  0
   -3.8579    2.7131   -0.0305 C   0  0  0  0  0  0  0  0  0  0  0  0
   -2.3583    2.5830   -0.1634 C   0  0  0  0  0  0  0  0  0  0  0  0
   -1.9066    1.3051   -0.8908 C   0  0  3  0  0  0  0  0  0  0  0  0
   -2.7345    0.0942   -0.3917 C   0  0  3  0  0  0  0  0  0  0  0  0
   -4.2771    0.2857   -0.6425 C   0  0  3  0  0  0  0  0  0  0  0  0
   -2.1640   -1.2622   -0.8915 C   0  0  0  0  0  0  0  0  0  0  0  0
   -0.6404   -1.4042   -0.7026 C   0  0  0  0  0  0  0  0  0  0  0  0
    0.1424   -0.2340   -1.3379 C   0  0  3  0  0  0  0  0  0  0  0  0
   -0.4041    1.0408   -0.6618 C   0  0  3  0  0  0  0  0  0  0  0  0
    0.5788    2.1349   -1.0795 C   0  0  0  0  0  0  0  0  0  0  0  0
    1.9332    1.4105   -1.0922 C   0  0  0  0  0  0  0  0  0  0  0  0
    1.6363   -0.0990   -0.9221 C   0  0  3  0  0  0  0  0  0  0  0  0
   -0.0358   -0.2602   -2.8769 C   0  0  0  0  0  0  0  0  0  0  0  0
   -4.6339    0.1098   -2.1393 C   0  0  0  0  0  0  0  0  0  0  0  0
    2.7726   -1.0252   -1.4562 C   0  0  3  0  0  0  0  0  0  0  0  0
    3.1233   -0.9401   -2.9581 C   0  0  0  0  0  0  0  0  0  0  0  0
    2.5100   -2.4956   -1.0672 C   0  0  0  0  0  0  0  0  0  0  0  0
    3.7436   -3.4053   -1.1958 C   0  0  0  0  0  0  0  0  0  0  0  0
    3.6136   -4.7712   -0.4900 C   0  0  0  0  0  0  0  0  0  0  0  0
    2.5429   -5.7775   -0.9703 C   0  0  0  0  0  0  0  0  0  0  0  0
    1.1461   -5.5092   -0.3906 C   0  0  0  0  0  0  0  0  0  0  0  0
    2.4660   -5.8889   -2.4991 C   0  0  0  0  0  0  0  0  0  0  0  0
   -8.2838    1.0400    0.8082 O   0  0  0  0  0  0  0  0  0  0  0  0
  1  2  1  0  0  0  0
  1 10  1  0  0  0  0
  2  3  1  0  0  0  0
  3  4  1  0  0  0  0
  3 28  1  0  0  0  0
  4  5  1  0  0  0  0
  5  6  2  0  0  0  0
  5 10  1  0  0  0  0
  6  7  1  0  0  0  0
  7  8  1  0  0  0  0
  8  9  1  0  0  0  0
  8 14  1  0  0  0  0
  9 10  1  0  0  0  0
  9 11  1  0  0  0  0
 10 19  1  0  0  0  0
 11 12  1  0  0  0  0
 12 13  1  0  0  0  0
 13 14  1  0  0  0  0
 13 17  1  0  0  0  0
 13 18  1  0  0  0  0
 14 15  1  0  0  0  0
 15 16  1  0  0  0  0
 16 17  1  0  0  0  0
 17 20  1  0  0  0  0
 20 21  1  0  0  0  0
 20 22  1  0  0  0  0
 22 23  1  0  0  0  0
 23 24  1  0  0  0  0
 24 25  1  0  0  0  0
 25 26  1  0  0  0  0
 25 27  1  0  0  0  0
M  END
$$$$
CLR_2rh1_C_413
  PyMOL2.2          3D                             0

 28 31  0  0  1  0  0  0  0  0999 V2000
   -5.0638   -0.7616    0.2011 C   0  0  0  0  0  0  0  0  0  0  0  0
   -6.5870   -0.5438    0.2742 C   0  0  0  0  0  0  0  0  0  0  0  0
   -6.8835    0.8587    0.8011 C   0  0  3  0  0  0  0  0  0  0  0  0
   -6.2124    1.9320   -0.0619 C   0  0  0  0  0  0  0  0  0  0  0  0
   -4.7166    1.6988   -0.2227 C   0  0  0  0  0  0  0  0  0  0  0  0
   -3.8572    2.7131   -0.0305 C   0  0  0  0  0  0  0  0  0  0  0  0
   -2.3585    2.5825   -0.1633 C   0  0  0  0  0  0  0  0  0  0  0  0
   -1.9066    1.3040   -0.8914 C   0  0  3  0  0  0  0  0  0  0  0  0
   -2.7342    0.0935   -0.3917 C   0  0  3  0  0  0  0  0  0  0  0  0
   -4.2782    0.2861   -0.6424 C   0  0  3  0  0  0  0  0  0  0  0  0
   -2.1640   -1.2638   -0.8920 C   0  0  0  0  0  0  0  0  0  0  0  0
   -0.6405   -1.4061   -0.7031 C   0  0  0  0  0  0  0  0  0  0  0  0
    0.1430   -0.2356   -1.3385 C   0  0  3  0  0  0  0  0  0  0  0  0
   -0.4042    1.0403   -0.6626 C   0  0  3  0  0  0  0  0  0  0  0  0
    0.5784    2.1343   -1.0798 C   0  0  0  0  0  0  0  0  0  0  0  0
    1.9319    1.4106   -1.0896 C   0  0  0  0  0  0  0  0  0  0  0  0
    1.6370   -0.0993   -0.9214 C   0  0  3  0  0  0  0  0  0  0  0  0
   -0.0369   -0.2605   -2.8764 C   0  0  0  0  0  0  0  0  0  0  0  0
   -4.6343    0.1090   -2.1391 C   0  0  0  0  0  0  0  0  0  0  0  0
    2.7768   -1.0207   -1.4579 C   0  0  3  0  0  0  0  0  0  0  0  0
    3.1068   -0.9432   -2.9621 C   0  0  0  0  0  0  0  0  0  0  0  0
    2.5498   -2.4907   -1.0329 C   0  0  0  0  0  0  0  0  0  0  0  0
    3.7906   -3.4004   -1.1442 C   0  0  0  0  0  0  0  0  0  0  0  0
    3.7705   -4.2862   -2.4044 C   0  0  0  0  0  0  0  0  0  0  0  0
    5.0759   -5.0759   -2.6167 C   0  0  0  0  0  0  0  0  0  0  0  0
    5.3418   -6.0897   -1.4933 C   0  0  0  0  0  0  0  0  0  0  0  0
    4.9991   -5.8262   -3.9534 C   0  0  0  0  0  0  0  0  0  0  0  0
   -8.2837    1.0408    0.8087 O   0  0  0  0  0  0  0  0  0  0  0  0
  1  2  1  0  0  0  0
  1 10  1  0  0  0  0
  2  3  1  0  0  0  0
  3  4  1  0  0  0  0
  3 28  1  0  0  0  0
  4  5  1  0  0  0  0
  5  6  2  0  0  0  0
  5 10  1  0  0  0  0
  6  7  1  0  0  0  0
  7  8  1  0  0  0  0
  8  9  1  0  0  0  0
  8 14  1  0  0  0  0
  9 10  1  0  0  0  0
  9 11  1  0  0  0  0
 10 19  1  0  0  0  0
 11 12  1  0  0  0  0
 12 13  1  0  0  0  0
 13 14  1  0  0  0  0
 13 17  1  0  0  0  0
 13 18  1  0  0  0  0
 14 15  1  0  0  0  0
 15 16  1  0  0  0  0
 16 17  1  0  0  0  0
 17 20  1  0  0  0  0
 20 21  1  0  0  0  0
 20 22  1  0  0  0  0
 22 23  1  0  0  0  0
 23 24  1  0  0  0  0
 24 25  1  0  0  0  0
 25 26  1  0  0  0  0
 25 27  1  0  0  0  0
M  END
$$$$
CLR_2rh1_C_413
  PyMOL2.2          3D                             0

 28 31  0  0  1  0  0  0  0  0999 V2000
   -5.0630   -0.7621    0.2009 C   0  0  0  0  0  0  0  0  0  0  0  0
   -6.5856   -0.5455    0.2733 C   0  0  0  0  0  0  0  0  0  0  0  0
   -6.8835    0.8568    0.8011 C   0  0  3  0  0  0  0  0  0  0  0  0
   -6.2123    1.9302   -0.0607 C   0  0  0  0  0  0  0  0  0  0  0  0
   -4.7171    1.6979   -0.2217 C   0  0  0  0  0  0  0  0  0  0  0  0
   -3.8580    2.7128   -0.0301 C   0  0  0  0  0  0  0  0  0  0  0  0
   -2.3585    2.5831   -0.1626 C   0  0  0  0  0  0  0  0  0  0  0  0
   -1.9065    1.3056   -0.8914 C   0  0  3  0  0  0  0  0  0  0  0  0
   -2.7331    0.0941   -0.3925 C   0  0  3  0  0  0  0  0  0  0  0  0
   -4.2769    0.2855   -0.6429 C   0  0  3  0  0  0  0  0  0  0  0  0
   -2.1637   -1.2623   -0.8932 C   0  0  0  0  0  0  0  0  0  0  0  0
   -0.6397   -1.4042   -0.7041 C   0  0  0  0  0  0  0  0  0  0  0  0
    0.1422   -0.2327   -1.3379 C   0  0  3  0  0  0  0  0  0  0  0  0
   -0.4033    1.0422   -0.6625 C   0  0  3  0  0  0  0  0  0  0  0  0
    0.5800    2.1359   -1.0796 C   0  0  0  0  0  0  0  0  0  0  0  0
    1.9339    1.4122   -1.0956 C   0  0  0  0  0  0  0  0  0  0  0  0
    1.6360   -0.0970   -0.9214 C   0  0  3  0  0  0  0  0  0  0  0  0
   -0.0360   -0.2580   -2.8773 C   0  0  0  0  0  0  0  0  0  0  0  0
   -4.6335    0.1095   -2.1393 C   0  0  0  0  0  0  0  0  0  0  0  0
    2.7678   -1.0322   -1.4505 C   0  0  3  0  0  0  0  0  0  0  0  0
    3.1150   -0.9514   -2.9536 C   0  0  0  0  0  0  0  0  0  0  0  0
    2.4932   -2.4989   -1.0522 C   0  0  0  0  0  0  0  0  0  0  0  0
    3.7397   -3.3994   -1.0658 C   0  0  0  0  0  0  0  0  0  0  0  0
    3.4515   -4.8840   -0.7666 C   0  0  0  0  0  0  0  0  0  0  0  0
    2.8355   -5.1721    0.6212 C   0  0  0  0  0  0  0  0  0  0  0  0
    1.3030   -5.2862    0.5634 C   0  0  0  0  0  0  0  0  0  0  0  0
    3.3806   -6.4972    1.1721 C   0  0  0  0  0  0  0  0  0  0  0  0
   -8.2832    1.0384    0.8092 O   0  0  0  0  0  0  0  0  0  0  0  0
  1  2  1  0  0  0  0
  1 10  1  0  0  0  0
  2  3  1  0  0  0  0
  3  4  1  0  0  0  0
  3 28  1  0  0  0  0
  4  5  1  0  0  0  0
  5  6  2  0  0  0  0
  5 10  1  0  0  0  0
  6  7  1  0  0  0  0
  7  8  1  0  0  0  0
  8  9  1  0  0  0  0
  8 14  1  0  0  0  0
  9 10  1  0  0  0  0
  9 11  1  0  0  0  0
 10 19  1  0  0  0  0
 11 12  1  0  0  0  0
 12 13  1  0  0  0  0
 13 14  1  0  0  0  0
 13 17  1  0  0  0  0
 13 18  1  0  0  0  0
 14 15  1  0  0  0  0
 15 16  1  0  0  0  0
 16 17  1  0  0  0  0
 17 20  1  0  0  0  0
 20 21  1  0  0  0  0
 20 22  1  0  0  0  0
 22 23  1  0  0  0  0
 23 24  1  0  0  0  0
 24 25  1  0  0  0  0
 25 26  1  0  0  0  0
 25 27  1  0  0  0  0
M  END
$$$$
