4agn


 53 54  0  0  0  0  0  0  0  0999 V2000
    2.5209    6.6299    6.3322 N   0  3  0  1  0  4  0  0  0  0  0  0
    1.3416    8.7866    9.1336 N   0  3  0  1  0  4  0  0  0  0  0  0
    0.9984    2.0371    5.0999 C   0  0  0  1  0  3  0  0  0  0  0  0
    1.9790    4.2140    5.5256 C   0  0  0  1  0  3  0  0  0  0  0  0
    0.6362    2.4517    3.8078 C   0  0  0  1  0  3  0  0  0  0  0  0
    2.7438    5.1386    6.4710 C   0  0  0  1  0  4  0  0  0  0  0  0
    1.0783    6.9623    6.6507 C   0  0  0  1  0  4  0  0  0  0  0  0
    1.6753    2.9229    5.9597 C   0  0  0  1  0  3  0  0  0  0  0  0
    0.9593    3.7621    3.4033 C   0  0  0  1  0  3  0  0  0  0  0  0
    1.6331    4.6696    4.2296 C   0  0  0  1  0  3  0  0  0  0  0  0
    0.8308    8.4545    6.7078 C   0  0  0  1  0  4  0  0  0  0  0  0
    1.7396    9.1749    7.6909 C   0  0  0  1  0  4  0  0  0  0  0  0
    2.2398    9.2948   10.2549 C   0  0  0  1  0  4  0  0  0  0  0  0
    2.4887   10.7921   10.1482 C   0  0  0  1  0  4  0  0  0  0  0  0
    1.1184    7.2643    9.2404 C   0  0  0  1  0  4  0  0  0  0  0  0
    0.4686    6.9244   10.5716 C   0  0  0  1  0  4  0  0  0  0  0  0
    3.1859    8.7850    7.4475 C   0  0  0  1  0  4  0  0  0  0  0  0
    3.3964    7.2849    7.3752 C   0  0  0  1  0  4  0  0  0  0  0  0
    0.6964    0.7311    5.5948 C   0  0  0  1  0  2  0  0  0  0  0  0
    0.4472   -0.3628    6.0191 C   0  0  0  1  0  2  0  0  0  0  0  0
    0.1416   -1.6989    6.5338 C   0  0  0  1  0  4  0  0  0  0  0  0
    1.9331    5.9455    3.8519 O   0  0  0  1  0  2  0  0  0  0  0  0
    0.6258   -1.8366    7.8645 O   0  0  0  1  0  2  0  0  0  0  0  0
    0.4519    4.3950    1.4346 I   0  0  0  1  0  1  0  0  0  0  0  0
    2.7338    6.9425    5.3977 H   0  0  0  1  0  1  0  0  0  0  0  0
    1.6357    6.0895    2.9613 H   0  0  0  1  0  1  0  0  0  0  0  0
    0.1185    1.7774    3.1360 H   0  0  0  1  0  1  0  0  0  0  0  0
    2.4667    4.8596    7.4982 H   0  0  0  1  0  1  0  0  0  0  0  0
    3.8166    4.9514    6.3164 H   0  0  0  1  0  1  0  0  0  0  0  0
    0.4455    9.2202    9.2921 H   0  0  0  1  0  1  0  0  0  0  0  0
    0.8217    6.5239    7.6263 H   0  0  0  1  0  1  0  0  0  0  0  0
    0.4348    6.5267    5.8716 H   0  0  0  1  0  1  0  0  0  0  0  0
    1.9608    2.6022    6.9552 H   0  0  0  1  0  1  0  0  0  0  0  0
   -0.2137    8.6243    7.0083 H   0  0  0  1  0  1  0  0  0  0  0  0
    0.9974    8.8751    5.7050 H   0  0  0  1  0  1  0  0  0  0  0  0
    1.6289   10.2616    7.5592 H   0  0  0  1  0  1  0  0  0  0  0  0
    3.2045    8.7698   10.2045 H   0  0  0  1  0  1  0  0  0  0  0  0
    1.7568    9.0832   11.2206 H   0  0  0  1  0  1  0  0  0  0  0  0
    2.9922   11.0131    9.1965 H   0  0  0  1  0  1  0  0  0  0  0  0
    3.1246   11.1183   10.9843 H   0  0  0  1  0  1  0  0  0  0  0  0
    1.5287   11.3273   10.1881 H   0  0  0  1  0  1  0  0  0  0  0  0
    2.0880    6.7478    9.1675 H   0  0  0  1  0  1  0  0  0  0  0  0
    0.4634    6.9330    8.4217 H   0  0  0  1  0  1  0  0  0  0  0  0
    0.2978    5.8392   10.6296 H   0  0  0  1  0  1  0  0  0  0  0  0
   -0.4923    7.4520   10.6551 H   0  0  0  1  0  1  0  0  0  0  0  0
    1.1308    7.2359   11.3925 H   0  0  0  1  0  1  0  0  0  0  0  0
    3.7988    9.1848    8.2693 H   0  0  0  1  0  1  0  0  0  0  0  0
    3.5123    9.2299    6.4961 H   0  0  0  1  0  1  0  0  0  0  0  0
    4.4501    7.0876    7.1265 H   0  0  0  1  0  1  0  0  0  0  0  0
    3.1629    6.8478    8.3574 H   0  0  0  1  0  1  0  0  0  0  0  0
    0.6210   -2.4533    5.8933 H   0  0  0  1  0  1  0  0  0  0  0  0
   -0.9483   -1.8503    6.5262 H   0  0  0  1  0  1  0  0  0  0  0  0
    0.4214   -2.7067    8.1860 H   0  0  0  1  0  1  0  0  0  0  0  0
  1  6  1  0  0  0  0
  1  7  1  0  0  0  0
  1 18  1  0  0  0  0
  1 25  1  0  0  0  0
  2 12  1  0  0  0  0
  2 13  1  0  0  0  0
  2 15  1  0  0  0  0
  2 30  1  0  0  0  0
  3  5  2  0  0  0  0
  3  8  1  0  0  0  0
  3 19  1  0  0  0  0
  4  6  1  0  0  0  0
  4  8  2  0  0  0  0
  4 10  1  0  0  0  0
  5  9  1  0  0  0  0
  5 27  1  0  0  0  0
  6 28  1  0  0  0  0
  6 29  1  0  0  0  0
  7 11  1  0  0  0  0
  7 31  1  0  0  0  0
  7 32  1  0  0  0  0
  8 33  1  0  0  0  0
  9 10  2  0  0  0  0
  9 24  1  0  0  0  0
 10 22  1  0  0  0  0
 11 12  1  0  0  0  0
 11 34  1  0  0  0  0
 11 35  1  0  0  0  0
 12 17  1  0  0  0  0
 12 36  1  0  0  0  0
 13 14  1  0  0  0  0
 13 37  1  0  0  0  0
 13 38  1  0  0  0  0
 14 39  1  0  0  0  0
 14 40  1  0  0  0  0
 14 41  1  0  0  0  0
 15 16  1  0  0  0  0
 15 42  1  0  0  0  0
 15 43  1  0  0  0  0
 16 44  1  0  0  0  0
 16 45  1  0  0  0  0
 16 46  1  0  0  0  0
 17 18  1  0  0  0  0
 17 47  1  0  0  0  0
 17 48  1  0  0  0  0
 18 49  1  0  0  0  0
 18 50  1  0  0  0  0
 19 20  3  0  0  0  0
 20 21  1  0  0  0  0
 21 23  1  0  0  0  0
 21 51  1  0  0  0  0
 21 52  1  0  0  0  0
 22 26  1  0  0  0  0
 23 53  1  0  0  0  0
M  END
> <ConfScore>
-0.493162 

$$$$
4agn


 53 54  0  0  0  0  0  0  0  0999 V2000
   24.4330    4.1140    6.3520 N   0  3  0  1  0  4  0  0  0  0  0  0
   25.1964    0.4472    8.5037 N   0  3  0  1  0  4  0  0  0  0  0  0
   22.6597    5.9244    2.1936 C   0  0  0  1  0  3  0  0  0  0  0  0
   23.4260    5.2833    4.4035 C   0  0  0  1  0  3  0  0  0  0  0  0
   21.3919    5.3907    2.4772 C   0  0  0  1  0  3  0  0  0  0  0  0
   24.5480    5.2730    5.4500 C   0  0  0  1  0  4  0  0  0  0  0  0
   25.4840    4.1440    7.3870 C   0  0  0  1  0  4  0  0  0  0  0  0
   23.6787    5.8719    3.1636 C   0  0  0  1  0  3  0  0  0  0  0  0
   21.1726    4.8043    3.7395 C   0  0  0  1  0  3  0  0  0  0  0  0
   22.1607    4.7360    4.7291 C   0  0  0  1  0  3  0  0  0  0  0  0
   25.3250    2.9490    8.3330 C   0  0  0  1  0  4  0  0  0  0  0  0
   25.4480    1.6410    7.5540 C   0  0  0  1  0  4  0  0  0  0  0  0
   25.2751   -0.9464    7.8920 C   0  0  0  1  0  4  0  0  0  0  0  0
   26.4519   -1.0812    6.9369 C   0  0  0  1  0  4  0  0  0  0  0  0
   23.8790    0.6445    9.2810 C   0  0  0  1  0  4  0  0  0  0  0  0
   22.6982    0.6049    8.3250 C   0  0  0  1  0  4  0  0  0  0  0  0
   24.4130    1.6290    6.4330 C   0  0  0  1  0  4  0  0  0  0  0  0
   24.5460    2.8760    5.5510 C   0  0  0  1  0  4  0  0  0  0  0  0
   22.9710    6.5233    0.9342 C   0  0  0  1  0  2  0  0  0  0  0  0
   23.2417    7.0280   -0.1198 C   0  0  0  1  0  2  0  0  0  0  0  0
   23.5688    7.6432   -1.4073 C   0  0  0  1  0  4  0  0  0  0  0  0
   21.9616    4.1538    5.9465 O   0  0  0  1  0  2  0  0  0  0  0  0
   24.9185    8.0934   -1.4092 O   0  0  0  1  0  2  0  0  0  0  0  0
   19.2456    4.0246    4.2005 I   0  0  0  1  0  1  0  0  0  0  0  0
   23.5397    4.1450    6.8182 H   0  0  0  1  0  1  0  0  0  0  0  0
   21.0669    3.8398    6.0041 H   0  0  0  1  0  1  0  0  0  0  0  0
   20.5988    5.4288    1.7399 H   0  0  0  1  0  1  0  0  0  0  0  0
   25.5182    5.2292    4.9336 H   0  0  0  1  0  1  0  0  0  0  0  0
   24.4902    6.1963    6.0451 H   0  0  0  1  0  1  0  0  0  0  0  0
   25.9394    0.4824    9.1840 H   0  0  0  1  0  1  0  0  0  0  0  0
   25.4009    5.0775    7.9629 H   0  0  0  1  0  1  0  0  0  0  0  0
   26.4716    4.0970    6.9042 H   0  0  0  1  0  1  0  0  0  0  0  0
   24.6560    6.2890    2.9482 H   0  0  0  1  0  1  0  0  0  0  0  0
   24.3363    2.9945    8.8130 H   0  0  0  1  0  1  0  0  0  0  0  0
   26.1094    2.9884    9.1033 H   0  0  0  1  0  1  0  0  0  0  0  0
   26.4576    1.5618    7.1241 H   0  0  0  1  0  1  0  0  0  0  0  0
   24.3452   -1.1466    7.3406 H   0  0  0  1  0  1  0  0  0  0  0  0
   25.3882   -1.6837    8.7009 H   0  0  0  1  0  1  0  0  0  0  0  0
   26.4815   -2.1032    6.5337 H   0  0  0  1  0  1  0  0  0  0  0  0
   27.3874   -0.8722    7.4763 H   0  0  0  1  0  1  0  0  0  0  0  0
   26.3378   -0.3642    6.1107 H   0  0  0  1  0  1  0  0  0  0  0  0
   23.8998    1.6196    9.7918 H   0  0  0  1  0  1  0  0  0  0  0  0
   23.7705   -0.1577   10.0252 H   0  0  0  1  0  1  0  0  0  0  0  0
   22.6732   -0.3687    7.8134 H   0  0  0  1  0  1  0  0  0  0  0  0
   22.8024    1.4077    7.5811 H   0  0  0  1  0  1  0  0  0  0  0  0
   21.7651    0.7466    8.8895 H   0  0  0  1  0  1  0  0  0  0  0  0
   23.4051    1.6057    6.8739 H   0  0  0  1  0  1  0  0  0  0  0  0
   24.5636    0.7326    5.8138 H   0  0  0  1  0  1  0  0  0  0  0  0
   25.5270    2.8597    5.0527 H   0  0  0  1  0  1  0  0  0  0  0  0
   23.7488    2.8655    4.7929 H   0  0  0  1  0  1  0  0  0  0  0  0
   22.9006    8.4991   -1.5812 H   0  0  0  1  0  1  0  0  0  0  0  0
   23.4319    6.9021   -2.2091 H   0  0  0  1  0  1  0  0  0  0  0  0
   25.1174    8.4901   -2.2491 H   0  0  0  1  0  1  0  0  0  0  0  0
  1  6  1  0  0  0  0
  1  7  1  0  0  0  0
  1 18  1  0  0  0  0
  1 25  1  0  0  0  0
  2 12  1  0  0  0  0
  2 13  1  0  0  0  0
  2 15  1  0  0  0  0
  2 30  1  0  0  0  0
  3  5  2  0  0  0  0
  3  8  1  0  0  0  0
  3 19  1  0  0  0  0
  4  6  1  0  0  0  0
  4  8  2  0  0  0  0
  4 10  1  0  0  0  0
  5  9  1  0  0  0  0
  5 27  1  0  0  0  0
  6 28  1  0  0  0  0
  6 29  1  0  0  0  0
  7 11  1  0  0  0  0
  7 31  1  0  0  0  0
  7 32  1  0  0  0  0
  8 33  1  0  0  0  0
  9 10  2  0  0  0  0
  9 24  1  0  0  0  0
 10 22  1  0  0  0  0
 11 12  1  0  0  0  0
 11 34  1  0  0  0  0
 11 35  1  0  0  0  0
 12 17  1  0  0  0  0
 12 36  1  0  0  0  0
 13 14  1  0  0  0  0
 13 37  1  0  0  0  0
 13 38  1  0  0  0  0
 14 39  1  0  0  0  0
 14 40  1  0  0  0  0
 14 41  1  0  0  0  0
 15 16  1  0  0  0  0
 15 42  1  0  0  0  0
 15 43  1  0  0  0  0
 16 44  1  0  0  0  0
 16 45  1  0  0  0  0
 16 46  1  0  0  0  0
 17 18  1  0  0  0  0
 17 47  1  0  0  0  0
 17 48  1  0  0  0  0
 18 49  1  0  0  0  0
 18 50  1  0  0  0  0
 19 20  3  0  0  0  0
 20 21  1  0  0  0  0
 21 23  1  0  0  0  0
 21 51  1  0  0  0  0
 21 52  1  0  0  0  0
 22 26  1  0  0  0  0
 23 53  1  0  0  0  0
M  END
> <ConfScore>
-0.478221 

$$$$
4agn


 53 54  0  0  0  0  0  0  0  0999 V2000
   90.4980   98.3810  -44.6910 N   0  3  0  1  0  4  0  0  0  0  0  0
   92.0509  102.3792  -44.2366 N   0  3  0  1  0  4  0  0  0  0  0  0
   91.6027   93.8948  -46.2242 C   0  0  0  1  0  3  0  0  0  0  0  0
   90.8370   95.9880  -45.2681 C   0  0  0  1  0  3  0  0  0  0  0  0
   92.5038   93.7364  -45.1586 C   0  0  0  1  0  3  0  0  0  0  0  0
   89.9050   97.1660  -45.3350 C   0  0  0  1  0  4  0  0  0  0  0  0
   89.5430   99.5450  -44.7170 C   0  0  0  1  0  4  0  0  0  0  0  0
   90.7646   95.0248  -46.2754 C   0  0  0  1  0  3  0  0  0  0  0  0
   92.5494   94.7286  -44.1591 C   0  0  0  1  0  3  0  0  0  0  0  0
   91.7304   95.8640  -44.1757 C   0  0  0  1  0  3  0  0  0  0  0  0
   90.1750  100.7310  -44.0050 C   0  0  0  1  0  4  0  0  0  0  0  0
   91.4300  101.0810  -44.8020 C   0  0  0  1  0  4  0  0  0  0  0  0
   91.1600  103.6155  -44.2171 C   0  0  0  1  0  4  0  0  0  0  0  0
   91.8783  104.8235  -43.6338 C   0  0  0  1  0  4  0  0  0  0  0  0
   93.4022  102.6729  -44.9196 C   0  0  0  1  0  4  0  0  0  0  0  0
   93.1769  103.0946  -46.3622 C   0  0  0  1  0  4  0  0  0  0  0  0
   92.4510   99.9400  -44.6950 C   0  0  0  1  0  4  0  0  0  0  0  0
   91.8210   98.7070  -45.3220 C   0  0  0  1  0  4  0  0  0  0  0  0
   91.5025   92.9442  -47.2863 C   0  0  0  1  0  2  0  0  0  0  0  0
   91.4112   92.1518  -48.1822 C   0  0  0  1  0  2  0  0  0  0  0  0
   91.3023   91.1827  -49.2741 C   0  0  0  1  0  4  0  0  0  0  0  0
   91.7815   96.8376  -43.2218 O   0  0  0  1  0  2  0  0  0  0  0  0
   90.3124   91.6009  -50.2067 O   0  0  0  1  0  2  0  0  0  0  0  0
   93.8822   94.4858  -42.5164 I   0  0  0  1  0  1  0  0  0  0  0  0
   90.6653   98.1804  -43.7174 H   0  0  0  1  0  1  0  0  0  0  0  0
   92.4267   96.6032  -42.5653 H   0  0  0  1  0  1  0  0  0  0  0  0
   93.1510   92.8690  -45.1065 H   0  0  0  1  0  1  0  0  0  0  0  0
   89.6909   97.3910  -46.3901 H   0  0  0  1  0  1  0  0  0  0  0  0
   88.9691   96.9094  -44.8170 H   0  0  0  1  0  1  0  0  0  0  0  0
   92.2547  102.1818  -43.2695 H   0  0  0  1  0  1  0  0  0  0  0  0
   88.6095   99.2654  -44.2068 H   0  0  0  1  0  1  0  0  0  0  0  0
   89.3241   99.8172  -45.7604 H   0  0  0  1  0  1  0  0  0  0  0  0
   90.0643   95.1453  -47.0943 H   0  0  0  1  0  1  0  0  0  0  0  0
   90.4413  100.4593  -42.9728 H   0  0  0  1  0  1  0  0  0  0  0  0
   89.4801  101.5838  -43.9926 H   0  0  0  1  0  1  0  0  0  0  0  0
   91.1611  101.2321  -45.8581 H   0  0  0  1  0  1  0  0  0  0  0  0
   90.2695  103.4035  -43.6081 H   0  0  0  1  0  1  0  0  0  0  0  0
   90.8530  103.8486  -45.2476 H   0  0  0  1  0  1  0  0  0  0  0  0
   91.2020  105.6898  -43.6390 H   0  0  0  1  0  1  0  0  0  0  0  0
   92.7681  105.0487  -44.2400 H   0  0  0  1  0  1  0  0  0  0  0  0
   92.1854  104.6041  -42.6007 H   0  0  0  1  0  1  0  0  0  0  0  0
   94.0253  101.7654  -44.8999 H   0  0  0  1  0  1  0  0  0  0  0  0
   93.9153  103.4825  -44.3807 H   0  0  0  1  0  1  0  0  0  0  0  0
   94.1450  103.3187  -46.8341 H   0  0  0  1  0  1  0  0  0  0  0  0
   92.5408  103.9910  -46.3864 H   0  0  0  1  0  1  0  0  0  0  0  0
   92.6823  102.2788  -46.9093 H   0  0  0  1  0  1  0  0  0  0  0  0
   92.6879   99.7452  -43.6383 H   0  0  0  1  0  1  0  0  0  0  0  0
   93.3715  100.2074  -45.2344 H   0  0  0  1  0  1  0  0  0  0  0  0
   91.6686   98.8910  -46.3962 H   0  0  0  1  0  1  0  0  0  0  0  0
   92.5004   97.8520  -45.1886 H   0  0  0  1  0  1  0  0  0  0  0  0
   91.0221   90.2021  -48.8629 H   0  0  0  1  0  1  0  0  0  0  0  0
   92.2729   91.1022  -49.7861 H   0  0  0  1  0  1  0  0  0  0  0  0
   90.2519   90.9641  -50.9089 H   0  0  0  1  0  1  0  0  0  0  0  0
  1  6  1  0  0  0  0
  1  7  1  0  0  0  0
  1 18  1  0  0  0  0
  1 25  1  0  0  0  0
  2 12  1  0  0  0  0
  2 13  1  0  0  0  0
  2 15  1  0  0  0  0
  2 30  1  0  0  0  0
  3  5  2  0  0  0  0
  3  8  1  0  0  0  0
  3 19  1  0  0  0  0
  4  6  1  0  0  0  0
  4  8  2  0  0  0  0
  4 10  1  0  0  0  0
  5  9  1  0  0  0  0
  5 27  1  0  0  0  0
  6 28  1  0  0  0  0
  6 29  1  0  0  0  0
  7 11  1  0  0  0  0
  7 31  1  0  0  0  0
  7 32  1  0  0  0  0
  8 33  1  0  0  0  0
  9 10  2  0  0  0  0
  9 24  1  0  0  0  0
 10 22  1  0  0  0  0
 11 12  1  0  0  0  0
 11 34  1  0  0  0  0
 11 35  1  0  0  0  0
 12 17  1  0  0  0  0
 12 36  1  0  0  0  0
 13 14  1  0  0  0  0
 13 37  1  0  0  0  0
 13 38  1  0  0  0  0
 14 39  1  0  0  0  0
 14 40  1  0  0  0  0
 14 41  1  0  0  0  0
 15 16  1  0  0  0  0
 15 42  1  0  0  0  0
 15 43  1  0  0  0  0
 16 44  1  0  0  0  0
 16 45  1  0  0  0  0
 16 46  1  0  0  0  0
 17 18  1  0  0  0  0
 17 47  1  0  0  0  0
 17 48  1  0  0  0  0
 18 49  1  0  0  0  0
 18 50  1  0  0  0  0
 19 20  3  0  0  0  0
 20 21  1  0  0  0  0
 21 23  1  0  0  0  0
 21 51  1  0  0  0  0
 21 52  1  0  0  0  0
 22 26  1  0  0  0  0
 23 53  1  0  0  0  0
M  END
> <ConfScore>
-0.477777 

$$$$
4agn


 53 54  0  0  0  0  0  0  0  0999 V2000
    2.5209    6.6299    6.3322 N   0  3  0  1  0  4  0  0  0  0  0  0
    1.3416    8.7866    9.1336 N   0  3  0  1  0  4  0  0  0  0  0  0
    0.9327    2.0417    5.1769 C   0  0  0  1  0  3  0  0  0  0  0  0
    1.9473    4.2120    5.5543 C   0  0  0  1  0  3  0  0  0  0  0  0
    0.5460    2.4453    3.8884 C   0  0  0  1  0  3  0  0  0  0  0  0
    2.7438    5.1386    6.4710 C   0  0  0  1  0  4  0  0  0  0  0  0
    1.0783    6.9623    6.6507 C   0  0  0  1  0  4  0  0  0  0  0  0
    1.6389    2.9296    6.0105 C   0  0  0  1  0  3  0  0  0  0  0  0
    0.8746    3.7471    3.4610 C   0  0  0  1  0  3  0  0  0  0  0  0
    1.5773    4.6563    4.2611 C   0  0  0  1  0  3  0  0  0  0  0  0
    0.8308    8.4545    6.7078 C   0  0  0  1  0  4  0  0  0  0  0  0
    1.7396    9.1749    7.6909 C   0  0  0  1  0  4  0  0  0  0  0  0
    2.2398    9.2948   10.2549 C   0  0  0  1  0  4  0  0  0  0  0  0
    1.7065    8.9108   11.6273 C   0  0  0  1  0  4  0  0  0  0  0  0
    1.1184    7.2643    9.2404 C   0  0  0  1  0  4  0  0  0  0  0  0
    0.7519    6.8895   10.6670 C   0  0  0  1  0  4  0  0  0  0  0  0
    3.1859    8.7850    7.4475 C   0  0  0  1  0  4  0  0  0  0  0  0
    3.3964    7.2849    7.3752 C   0  0  0  1  0  4  0  0  0  0  0  0
    0.6272    0.7452    5.6941 C   0  0  0  1  0  2  0  0  0  0  0  0
    0.3754   -0.3407    6.1369 C   0  0  0  1  0  2  0  0  0  0  0  0
    0.0664   -1.6670    6.6743 C   0  0  0  1  0  4  0  0  0  0  0  0
    1.8830    5.9241    3.8614 O   0  0  0  1  0  2  0  0  0  0  0  0
    0.5791   -1.7947    7.9954 O   0  0  0  1  0  2  0  0  0  0  0  0
    0.3299    4.3627    1.4969 I   0  0  0  1  0  1  0  0  0  0  0  0
    2.7338    6.9425    5.3977 H   0  0  0  1  0  1  0  0  0  0  0  0
    1.5672    6.0611    2.9761 H   0  0  0  1  0  1  0  0  0  0  0  0
    0.0055    1.7693    3.2366 H   0  0  0  1  0  1  0  0  0  0  0  0
    2.4980    4.8652    7.5077 H   0  0  0  1  0  1  0  0  0  0  0  0
    3.8108    4.9475    6.2839 H   0  0  0  1  0  1  0  0  0  0  0  0
    0.4455    9.2202    9.2921 H   0  0  0  1  0  1  0  0  0  0  0  0
    0.8217    6.5239    7.6263 H   0  0  0  1  0  1  0  0  0  0  0  0
    0.4348    6.5267    5.8716 H   0  0  0  1  0  1  0  0  0  0  0  0
    1.9433    2.6173    7.0031 H   0  0  0  1  0  1  0  0  0  0  0  0
   -0.2137    8.6243    7.0083 H   0  0  0  1  0  1  0  0  0  0  0  0
    0.9974    8.8751    5.7050 H   0  0  0  1  0  1  0  0  0  0  0  0
    1.6289   10.2616    7.5592 H   0  0  0  1  0  1  0  0  0  0  0  0
    2.3029   10.3906   10.1921 H   0  0  0  1  0  1  0  0  0  0  0  0
    3.2435    8.8615   10.1302 H   0  0  0  1  0  1  0  0  0  0  0  0
    0.7129    9.3575   11.7726 H   0  0  0  1  0  1  0  0  0  0  0  0
    2.3924    9.2808   12.4036 H   0  0  0  1  0  1  0  0  0  0  0  0
    1.6303    7.8159   11.6981 H   0  0  0  1  0  1  0  0  0  0  0  0
    2.0427    6.7395    8.9534 H   0  0  0  1  0  1  0  0  0  0  0  0
    0.3025    6.9667    8.5659 H   0  0  0  1  0  1  0  0  0  0  0  0
   -0.1722    7.4112   10.9571 H   0  0  0  1  0  1  0  0  0  0  0  0
    1.5670    7.1835   11.3436 H   0  0  0  1  0  1  0  0  0  0  0  0
    0.5953    5.8029   10.7314 H   0  0  0  1  0  1  0  0  0  0  0  0
    3.7988    9.1848    8.2693 H   0  0  0  1  0  1  0  0  0  0  0  0
    3.5123    9.2299    6.4961 H   0  0  0  1  0  1  0  0  0  0  0  0
    4.4501    7.0876    7.1265 H   0  0  0  1  0  1  0  0  0  0  0  0
    3.1629    6.8478    8.3574 H   0  0  0  1  0  1  0  0  0  0  0  0
    0.5226   -2.4344    6.0323 H   0  0  0  1  0  1  0  0  0  0  0  0
   -1.0251   -1.8058    6.6932 H   0  0  0  1  0  1  0  0  0  0  0  0
    0.3721   -2.6586    8.3317 H   0  0  0  1  0  1  0  0  0  0  0  0
  1  6  1  0  0  0  0
  1  7  1  0  0  0  0
  1 18  1  0  0  0  0
  1 25  1  0  0  0  0
  2 12  1  0  0  0  0
  2 13  1  0  0  0  0
  2 15  1  0  0  0  0
  2 30  1  0  0  0  0
  3  5  2  0  0  0  0
  3  8  1  0  0  0  0
  3 19  1  0  0  0  0
  4  6  1  0  0  0  0
  4  8  2  0  0  0  0
  4 10  1  0  0  0  0
  5  9  1  0  0  0  0
  5 27  1  0  0  0  0
  6 28  1  0  0  0  0
  6 29  1  0  0  0  0
  7 11  1  0  0  0  0
  7 31  1  0  0  0  0
  7 32  1  0  0  0  0
  8 33  1  0  0  0  0
  9 10  2  0  0  0  0
  9 24  1  0  0  0  0
 10 22  1  0  0  0  0
 11 12  1  0  0  0  0
 11 34  1  0  0  0  0
 11 35  1  0  0  0  0
 12 17  1  0  0  0  0
 12 36  1  0  0  0  0
 13 14  1  0  0  0  0
 13 37  1  0  0  0  0
 13 38  1  0  0  0  0
 14 39  1  0  0  0  0
 14 40  1  0  0  0  0
 14 41  1  0  0  0  0
 15 16  1  0  0  0  0
 15 42  1  0  0  0  0
 15 43  1  0  0  0  0
 16 44  1  0  0  0  0
 16 45  1  0  0  0  0
 16 46  1  0  0  0  0
 17 18  1  0  0  0  0
 17 47  1  0  0  0  0
 17 48  1  0  0  0  0
 18 49  1  0  0  0  0
 18 50  1  0  0  0  0
 19 20  3  0  0  0  0
 20 21  1  0  0  0  0
 21 23  1  0  0  0  0
 21 51  1  0  0  0  0
 21 52  1  0  0  0  0
 22 26  1  0  0  0  0
 23 53  1  0  0  0  0
M  END
> <ConfScore>
-0.466074 

$$$$
4agn


 53 54  0  0  0  0  0  0  0  0999 V2000
   24.4330    4.1140    6.3520 N   0  3  0  1  0  4  0  0  0  0  0  0
   25.1964    0.4472    8.5037 N   0  3  0  1  0  4  0  0  0  0  0  0
   22.0306    6.5042    2.8620 C   0  0  0  1  0  3  0  0  0  0  0  0
   23.2167    5.5840    4.7667 C   0  0  0  1  0  3  0  0  0  0  0  0
   20.8054    6.2383    3.4951 C   0  0  0  1  0  3  0  0  0  0  0  0
   24.5480    5.2730    5.4500 C   0  0  0  1  0  4  0  0  0  0  0  0
   25.4840    4.1440    7.3870 C   0  0  0  1  0  4  0  0  0  0  0  0
   23.2402    6.1775    3.5038 C   0  0  0  1  0  3  0  0  0  0  0  0
   20.8198    5.6386    4.7700 C   0  0  0  1  0  3  0  0  0  0  0  0
   22.0025    5.3017    5.4395 C   0  0  0  1  0  3  0  0  0  0  0  0
   25.3250    2.9490    8.3330 C   0  0  0  1  0  4  0  0  0  0  0  0
   25.4480    1.6410    7.5540 C   0  0  0  1  0  4  0  0  0  0  0  0
   26.0654    0.3676    9.7531 C   0  0  0  1  0  4  0  0  0  0  0  0
   26.0715    1.6791   10.5246 C   0  0  0  1  0  4  0  0  0  0  0  0
   25.2197   -0.8805    7.7193 C   0  0  0  1  0  4  0  0  0  0  0  0
   24.3439   -0.7709    6.4820 C   0  0  0  1  0  4  0  0  0  0  0  0
   24.4130    1.6290    6.4330 C   0  0  0  1  0  4  0  0  0  0  0  0
   24.5460    2.8760    5.5510 C   0  0  0  1  0  4  0  0  0  0  0  0
   22.1058    7.0964    1.5638 C   0  0  0  1  0  2  0  0  0  0  0  0
   22.1790    7.5930    0.4744 C   0  0  0  1  0  2  0  0  0  0  0  0
   22.2648    8.1994   -0.8554 C   0  0  0  1  0  4  0  0  0  0  0  0
   22.0242    4.7044    6.6656 O   0  0  0  1  0  2  0  0  0  0  0  0
   23.6260    8.3496   -1.2412 O   0  0  0  1  0  2  0  0  0  0  0  0
   18.9729    5.2632    5.7609 I   0  0  0  1  0  1  0  0  0  0  0  0
   23.5397    4.1450    6.8182 H   0  0  0  1  0  1  0  0  0  0  0  0
   21.1341    4.5864    6.9754 H   0  0  0  1  0  1  0  0  0  0  0  0
   19.8682    6.4889    3.0125 H   0  0  0  1  0  1  0  0  0  0  0  0
   25.3022    5.0533    4.6801 H   0  0  0  1  0  1  0  0  0  0  0  0
   24.8638    6.1503    6.0336 H   0  0  0  1  0  1  0  0  0  0  0  0
   24.2539    0.5650    8.8412 H   0  0  0  1  0  1  0  0  0  0  0  0
   25.4009    5.0775    7.9629 H   0  0  0  1  0  1  0  0  0  0  0  0
   26.4716    4.0970    6.9042 H   0  0  0  1  0  1  0  0  0  0  0  0
   24.1868    6.3878    3.0189 H   0  0  0  1  0  1  0  0  0  0  0  0
   24.3363    2.9945    8.8130 H   0  0  0  1  0  1  0  0  0  0  0  0
   26.1094    2.9884    9.1033 H   0  0  0  1  0  1  0  0  0  0  0  0
   26.4576    1.5618    7.1241 H   0  0  0  1  0  1  0  0  0  0  0  0
   27.0958    0.1256    9.4556 H   0  0  0  1  0  1  0  0  0  0  0  0
   25.6759   -0.4270   10.4069 H   0  0  0  1  0  1  0  0  0  0  0  0
   26.6937    1.5723   11.4242 H   0  0  0  1  0  1  0  0  0  0  0  0
   25.0431    1.9364   10.8180 H   0  0  0  1  0  1  0  0  0  0  0  0
   26.4810    2.4772    9.8881 H   0  0  0  1  0  1  0  0  0  0  0  0
   24.8405   -1.6901    8.3618 H   0  0  0  1  0  1  0  0  0  0  0  0
   26.2518   -1.1063    7.4145 H   0  0  0  1  0  1  0  0  0  0  0  0
   24.3819   -1.7164    5.9210 H   0  0  0  1  0  1  0  0  0  0  0  0
   24.7095    0.0480    5.8461 H   0  0  0  1  0  1  0  0  0  0  0  0
   23.3067   -0.5655    6.7846 H   0  0  0  1  0  1  0  0  0  0  0  0
   23.4051    1.6057    6.8739 H   0  0  0  1  0  1  0  0  0  0  0  0
   24.5636    0.7326    5.8138 H   0  0  0  1  0  1  0  0  0  0  0  0
   25.5270    2.8597    5.0527 H   0  0  0  1  0  1  0  0  0  0  0  0
   23.7488    2.8655    4.7929 H   0  0  0  1  0  1  0  0  0  0  0  0
   21.7819    9.1872   -0.8361 H   0  0  0  1  0  1  0  0  0  0  0  0
   21.7502    7.5536   -1.5827 H   0  0  0  1  0  1  0  0  0  0  0  0
   23.6674    8.7437   -2.1045 H   0  0  0  1  0  1  0  0  0  0  0  0
  1  6  1  0  0  0  0
  1  7  1  0  0  0  0
  1 18  1  0  0  0  0
  1 25  1  0  0  0  0
  2 12  1  0  0  0  0
  2 13  1  0  0  0  0
  2 15  1  0  0  0  0
  2 30  1  0  0  0  0
  3  5  2  0  0  0  0
  3  8  1  0  0  0  0
  3 19  1  0  0  0  0
  4  6  1  0  0  0  0
  4  8  2  0  0  0  0
  4 10  1  0  0  0  0
  5  9  1  0  0  0  0
  5 27  1  0  0  0  0
  6 28  1  0  0  0  0
  6 29  1  0  0  0  0
  7 11  1  0  0  0  0
  7 31  1  0  0  0  0
  7 32  1  0  0  0  0
  8 33  1  0  0  0  0
  9 10  2  0  0  0  0
  9 24  1  0  0  0  0
 10 22  1  0  0  0  0
 11 12  1  0  0  0  0
 11 34  1  0  0  0  0
 11 35  1  0  0  0  0
 12 17  1  0  0  0  0
 12 36  1  0  0  0  0
 13 14  1  0  0  0  0
 13 37  1  0  0  0  0
 13 38  1  0  0  0  0
 14 39  1  0  0  0  0
 14 40  1  0  0  0  0
 14 41  1  0  0  0  0
 15 16  1  0  0  0  0
 15 42  1  0  0  0  0
 15 43  1  0  0  0  0
 16 44  1  0  0  0  0
 16 45  1  0  0  0  0
 16 46  1  0  0  0  0
 17 18  1  0  0  0  0
 17 47  1  0  0  0  0
 17 48  1  0  0  0  0
 18 49  1  0  0  0  0
 18 50  1  0  0  0  0
 19 20  3  0  0  0  0
 20 21  1  0  0  0  0
 21 23  1  0  0  0  0
 21 51  1  0  0  0  0
 21 52  1  0  0  0  0
 22 26  1  0  0  0  0
 23 53  1  0  0  0  0
M  END
> <ConfScore>
-0.465558 

$$$$
4agn


 53 54  0  0  0  0  0  0  0  0999 V2000
   24.4330    4.1140    6.3520 N   0  3  0  1  0  4  0  0  0  0  0  0
   25.1964    0.4472    8.5037 N   0  3  0  1  0  4  0  0  0  0  0  0
   22.0548    6.4141    2.7981 C   0  0  0  1  0  3  0  0  0  0  0  0
   23.2230    5.5689    4.7481 C   0  0  0  1  0  3  0  0  0  0  0  0
   20.8243    6.1940    3.4384 C   0  0  0  1  0  3  0  0  0  0  0  0
   24.5480    5.2730    5.4500 C   0  0  0  1  0  4  0  0  0  0  0  0
   25.4840    4.1440    7.3870 C   0  0  0  1  0  4  0  0  0  0  0  0
   23.2581    6.1021    3.4589 C   0  0  0  1  0  3  0  0  0  0  0  0
   20.8270    5.6546    4.7401 C   0  0  0  1  0  3  0  0  0  0  0  0
   22.0031    5.3342    5.4289 C   0  0  0  1  0  3  0  0  0  0  0  0
   25.3250    2.9490    8.3330 C   0  0  0  1  0  4  0  0  0  0  0  0
   25.4480    1.6410    7.5540 C   0  0  0  1  0  4  0  0  0  0  0  0
   26.0654    0.3676    9.7531 C   0  0  0  1  0  4  0  0  0  0  0  0
   26.0715    1.6791   10.5246 C   0  0  0  1  0  4  0  0  0  0  0  0
   25.2197   -0.8805    7.7193 C   0  0  0  1  0  4  0  0  0  0  0  0
   24.3439   -0.7709    6.4820 C   0  0  0  1  0  4  0  0  0  0  0  0
   24.4130    1.6290    6.4330 C   0  0  0  1  0  4  0  0  0  0  0  0
   24.5460    2.8760    5.5510 C   0  0  0  1  0  4  0  0  0  0  0  0
   22.1417    6.9437    1.4738 C   0  0  0  1  0  2  0  0  0  0  0  0
   22.2247    7.3878    0.3626 C   0  0  0  1  0  2  0  0  0  0  0  0
   22.3224    7.9300   -0.9938 C   0  0  0  1  0  4  0  0  0  0  0  0
   22.0133    4.7948    6.6817 O   0  0  0  1  0  2  0  0  0  0  0  0
   23.6867    8.0443   -1.3812 O   0  0  0  1  0  2  0  0  0  0  0  0
   18.9723    5.3500    5.7407 I   0  0  0  1  0  1  0  0  0  0  0  0
   23.5397    4.1450    6.8182 H   0  0  0  1  0  1  0  0  0  0  0  0
   21.1208    4.7029    6.9935 H   0  0  0  1  0  1  0  0  0  0  0  0
   19.8920    6.4338    2.9412 H   0  0  0  1  0  1  0  0  0  0  0  0
   25.3150    5.0604    4.6908 H   0  0  0  1  0  1  0  0  0  0  0  0
   24.8464    6.1543    6.0367 H   0  0  0  1  0  1  0  0  0  0  0  0
   24.2539    0.5650    8.8412 H   0  0  0  1  0  1  0  0  0  0  0  0
   25.4009    5.0775    7.9629 H   0  0  0  1  0  1  0  0  0  0  0  0
   26.4716    4.0970    6.9042 H   0  0  0  1  0  1  0  0  0  0  0  0
   24.2089    6.2772    2.9680 H   0  0  0  1  0  1  0  0  0  0  0  0
   24.3363    2.9945    8.8130 H   0  0  0  1  0  1  0  0  0  0  0  0
   26.1094    2.9884    9.1033 H   0  0  0  1  0  1  0  0  0  0  0  0
   26.4576    1.5618    7.1241 H   0  0  0  1  0  1  0  0  0  0  0  0
   27.0958    0.1256    9.4556 H   0  0  0  1  0  1  0  0  0  0  0  0
   25.6759   -0.4270   10.4069 H   0  0  0  1  0  1  0  0  0  0  0  0
   26.4805    2.4767    9.8886 H   0  0  0  1  0  1  0  0  0  0  0  0
   26.6943    1.5717   11.4249 H   0  0  0  1  0  1  0  0  0  0  0  0
   25.0435    1.9360   10.8194 H   0  0  0  1  0  1  0  0  0  0  0  0
   24.8405   -1.6901    8.3618 H   0  0  0  1  0  1  0  0  0  0  0  0
   26.2518   -1.1063    7.4145 H   0  0  0  1  0  1  0  0  0  0  0  0
   24.3819   -1.7164    5.9210 H   0  0  0  1  0  1  0  0  0  0  0  0
   24.7095    0.0480    5.8461 H   0  0  0  1  0  1  0  0  0  0  0  0
   23.3067   -0.5655    6.7846 H   0  0  0  1  0  1  0  0  0  0  0  0
   23.4051    1.6057    6.8739 H   0  0  0  1  0  1  0  0  0  0  0  0
   24.5636    0.7326    5.8138 H   0  0  0  1  0  1  0  0  0  0  0  0
   25.5270    2.8597    5.0527 H   0  0  0  1  0  1  0  0  0  0  0  0
   23.7488    2.8655    4.7929 H   0  0  0  1  0  1  0  0  0  0  0  0
   21.8525    8.9238   -1.0225 H   0  0  0  1  0  1  0  0  0  0  0  0
   21.8016    7.2575   -1.6919 H   0  0  0  1  0  1  0  0  0  0  0  0
   23.7358    8.3970   -2.2619 H   0  0  0  1  0  1  0  0  0  0  0  0
  1  6  1  0  0  0  0
  1  7  1  0  0  0  0
  1 18  1  0  0  0  0
  1 25  1  0  0  0  0
  2 12  1  0  0  0  0
  2 13  1  0  0  0  0
  2 15  1  0  0  0  0
  2 30  1  0  0  0  0
  3  5  2  0  0  0  0
  3  8  1  0  0  0  0
  3 19  1  0  0  0  0
  4  6  1  0  0  0  0
  4  8  2  0  0  0  0
  4 10  1  0  0  0  0
  5  9  1  0  0  0  0
  5 27  1  0  0  0  0
  6 28  1  0  0  0  0
  6 29  1  0  0  0  0
  7 11  1  0  0  0  0
  7 31  1  0  0  0  0
  7 32  1  0  0  0  0
  8 33  1  0  0  0  0
  9 10  2  0  0  0  0
  9 24  1  0  0  0  0
 10 22  1  0  0  0  0
 11 12  1  0  0  0  0
 11 34  1  0  0  0  0
 11 35  1  0  0  0  0
 12 17  1  0  0  0  0
 12 36  1  0  0  0  0
 13 14  1  0  0  0  0
 13 37  1  0  0  0  0
 13 38  1  0  0  0  0
 14 39  1  0  0  0  0
 14 40  1  0  0  0  0
 14 41  1  0  0  0  0
 15 16  1  0  0  0  0
 15 42  1  0  0  0  0
 15 43  1  0  0  0  0
 16 44  1  0  0  0  0
 16 45  1  0  0  0  0
 16 46  1  0  0  0  0
 17 18  1  0  0  0  0
 17 47  1  0  0  0  0
 17 48  1  0  0  0  0
 18 49  1  0  0  0  0
 18 50  1  0  0  0  0
 19 20  3  0  0  0  0
 20 21  1  0  0  0  0
 21 23  1  0  0  0  0
 21 51  1  0  0  0  0
 21 52  1  0  0  0  0
 22 26  1  0  0  0  0
 23 53  1  0  0  0  0
M  END
> <ConfScore>
-0.465558 

$$$$
4agn


 53 54  0  0  0  0  0  0  0  0999 V2000
   90.4980   98.3810  -44.6910 N   0  3  0  1  0  4  0  0  0  0  0  0
   92.0509  102.3792  -44.2366 N   0  3  0  1  0  4  0  0  0  0  0  0
   91.6101   93.9178  -46.2918 C   0  0  0  1  0  3  0  0  0  0  0  0
   90.8528   95.9992  -45.3037 C   0  0  0  1  0  3  0  0  0  0  0  0
   92.5493   93.7676  -45.2584 C   0  0  0  1  0  3  0  0  0  0  0  0
   89.9050   97.1660  -45.3350 C   0  0  0  1  0  4  0  0  0  0  0  0
   89.5430   99.5450  -44.7170 C   0  0  0  1  0  4  0  0  0  0  0  0
   90.7572   95.0378  -46.3108 C   0  0  0  1  0  3  0  0  0  0  0  0
   92.6175   94.7577  -44.2583 C   0  0  0  1  0  3  0  0  0  0  0  0
   91.7848   95.8832  -44.2432 C   0  0  0  1  0  3  0  0  0  0  0  0
   90.1750  100.7310  -44.0050 C   0  0  0  1  0  4  0  0  0  0  0  0
   91.4300  101.0810  -44.8020 C   0  0  0  1  0  4  0  0  0  0  0  0
   93.2367  102.9616  -44.9963 C   0  0  0  1  0  4  0  0  0  0  0  0
   94.4612  102.0621  -44.9130 C   0  0  0  1  0  4  0  0  0  0  0  0
   92.3718  102.2152  -42.7371 C   0  0  0  1  0  4  0  0  0  0  0  0
   91.1561  101.6797  -41.9988 C   0  0  0  1  0  4  0  0  0  0  0  0
   92.4510   99.9400  -44.6950 C   0  0  0  1  0  4  0  0  0  0  0  0
   91.8210   98.7070  -45.3220 C   0  0  0  1  0  4  0  0  0  0  0  0
   91.4846   92.9687  -47.3526 C   0  0  0  1  0  2  0  0  0  0  0  0
   91.3719   92.1776  -48.2472 C   0  0  0  1  0  2  0  0  0  0  0  0
   91.2370   91.2100  -49.3375 C   0  0  0  1  0  4  0  0  0  0  0  0
   91.8572   96.8550  -43.2888 O   0  0  0  1  0  2  0  0  0  0  0  0
   90.2105   91.6185  -50.2341 O   0  0  0  1  0  2  0  0  0  0  0  0
   94.0091   94.5270  -42.6633 I   0  0  0  1  0  1  0  0  0  0  0  0
   90.6653   98.1804  -43.7174 H   0  0  0  1  0  1  0  0  0  0  0  0
   92.5275   96.6267  -42.6556 H   0  0  0  1  0  1  0  0  0  0  0  0
   93.2082   92.9080  -45.2313 H   0  0  0  1  0  1  0  0  0  0  0  0
   89.6632   97.4003  -46.3821 H   0  0  0  1  0  1  0  0  0  0  0  0
   88.9849   96.8918  -44.7982 H   0  0  0  1  0  1  0  0  0  0  0  0
   91.3249  103.0755  -44.3006 H   0  0  0  1  0  1  0  0  0  0  0  0
   88.6095   99.2654  -44.2068 H   0  0  0  1  0  1  0  0  0  0  0  0
   89.3241   99.8172  -45.7604 H   0  0  0  1  0  1  0  0  0  0  0  0
   90.0276   95.1518  -47.1047 H   0  0  0  1  0  1  0  0  0  0  0  0
   90.4413  100.4593  -42.9728 H   0  0  0  1  0  1  0  0  0  0  0  0
   89.4801  101.5838  -43.9926 H   0  0  0  1  0  1  0  0  0  0  0  0
   91.1611  101.2321  -45.8581 H   0  0  0  1  0  1  0  0  0  0  0  0
   93.4870  103.9429  -44.5683 H   0  0  0  1  0  1  0  0  0  0  0  0
   92.9566  103.0829  -46.0534 H   0  0  0  1  0  1  0  0  0  0  0  0
   95.2898  102.5183  -45.4728 H   0  0  0  1  0  1  0  0  0  0  0  0
   94.2236  101.0789  -45.3451 H   0  0  0  1  0  1  0  0  0  0  0  0
   94.7542  101.9380  -43.8602 H   0  0  0  1  0  1  0  0  0  0  0  0
   92.6511  103.1930  -42.3151 H   0  0  0  1  0  1  0  0  0  0  0  0
   93.2081  101.5113  -42.6176 H   0  0  0  1  0  1  0  0  0  0  0  0
   91.4014  101.5497  -40.9344 H   0  0  0  1  0  1  0  0  0  0  0  0
   90.8640  100.7110  -42.4290 H   0  0  0  1  0  1  0  0  0  0  0  0
   90.3238  102.3916  -42.0991 H   0  0  0  1  0  1  0  0  0  0  0  0
   92.6879   99.7452  -43.6383 H   0  0  0  1  0  1  0  0  0  0  0  0
   93.3715  100.2074  -45.2344 H   0  0  0  1  0  1  0  0  0  0  0  0
   91.6686   98.8910  -46.3962 H   0  0  0  1  0  1  0  0  0  0  0  0
   92.5004   97.8520  -45.1886 H   0  0  0  1  0  1  0  0  0  0  0  0
   90.9829   90.2250  -48.9197 H   0  0  0  1  0  1  0  0  0  0  0  0
   92.1902   91.1424  -49.8830 H   0  0  0  1  0  1  0  0  0  0  0  0
   90.1334   90.9828  -50.9357 H   0  0  0  1  0  1  0  0  0  0  0  0
  1  6  1  0  0  0  0
  1  7  1  0  0  0  0
  1 18  1  0  0  0  0
  1 25  1  0  0  0  0
  2 12  1  0  0  0  0
  2 13  1  0  0  0  0
  2 15  1  0  0  0  0
  2 30  1  0  0  0  0
  3  5  2  0  0  0  0
  3  8  1  0  0  0  0
  3 19  1  0  0  0  0
  4  6  1  0  0  0  0
  4  8  2  0  0  0  0
  4 10  1  0  0  0  0
  5  9  1  0  0  0  0
  5 27  1  0  0  0  0
  6 28  1  0  0  0  0
  6 29  1  0  0  0  0
  7 11  1  0  0  0  0
  7 31  1  0  0  0  0
  7 32  1  0  0  0  0
  8 33  1  0  0  0  0
  9 10  2  0  0  0  0
  9 24  1  0  0  0  0
 10 22  1  0  0  0  0
 11 12  1  0  0  0  0
 11 34  1  0  0  0  0
 11 35  1  0  0  0  0
 12 17  1  0  0  0  0
 12 36  1  0  0  0  0
 13 14  1  0  0  0  0
 13 37  1  0  0  0  0
 13 38  1  0  0  0  0
 14 39  1  0  0  0  0
 14 40  1  0  0  0  0
 14 41  1  0  0  0  0
 15 16  1  0  0  0  0
 15 42  1  0  0  0  0
 15 43  1  0  0  0  0
 16 44  1  0  0  0  0
 16 45  1  0  0  0  0
 16 46  1  0  0  0  0
 17 18  1  0  0  0  0
 17 47  1  0  0  0  0
 17 48  1  0  0  0  0
 18 49  1  0  0  0  0
 18 50  1  0  0  0  0
 19 20  3  0  0  0  0
 20 21  1  0  0  0  0
 21 23  1  0  0  0  0
 21 51  1  0  0  0  0
 21 52  1  0  0  0  0
 22 26  1  0  0  0  0
 23 53  1  0  0  0  0
M  END
> <ConfScore>
-0.458621 

$$$$
4agn


 53 54  0  0  0  0  0  0  0  0999 V2000
   24.4330    4.1140    6.3520 N   0  3  0  1  0  4  0  0  0  0  0  0
   25.1964    0.4472    8.5037 N   0  3  0  1  0  4  0  0  0  0  0  0
   22.0548    6.4141    2.7981 C   0  0  0  1  0  3  0  0  0  0  0  0
   23.2230    5.5689    4.7481 C   0  0  0  1  0  3  0  0  0  0  0  0
   20.8243    6.1940    3.4384 C   0  0  0  1  0  3  0  0  0  0  0  0
   24.5480    5.2730    5.4500 C   0  0  0  1  0  4  0  0  0  0  0  0
   25.4840    4.1440    7.3870 C   0  0  0  1  0  4  0  0  0  0  0  0
   23.2581    6.1021    3.4589 C   0  0  0  1  0  3  0  0  0  0  0  0
   20.8270    5.6546    4.7401 C   0  0  0  1  0  3  0  0  0  0  0  0
   22.0031    5.3342    5.4289 C   0  0  0  1  0  3  0  0  0  0  0  0
   25.3250    2.9490    8.3330 C   0  0  0  1  0  4  0  0  0  0  0  0
   25.4480    1.6410    7.5540 C   0  0  0  1  0  4  0  0  0  0  0  0
   26.0654    0.3676    9.7531 C   0  0  0  1  0  4  0  0  0  0  0  0
   26.0715    1.6791   10.5246 C   0  0  0  1  0  4  0  0  0  0  0  0
   25.2197   -0.8805    7.7193 C   0  0  0  1  0  4  0  0  0  0  0  0
   24.6739   -2.0061    8.5823 C   0  0  0  1  0  4  0  0  0  0  0  0
   24.4130    1.6290    6.4330 C   0  0  0  1  0  4  0  0  0  0  0  0
   24.5460    2.8760    5.5510 C   0  0  0  1  0  4  0  0  0  0  0  0
   22.1417    6.9437    1.4738 C   0  0  0  1  0  2  0  0  0  0  0  0
   22.2247    7.3878    0.3626 C   0  0  0  1  0  2  0  0  0  0  0  0
   22.3224    7.9300   -0.9938 C   0  0  0  1  0  4  0  0  0  0  0  0
   22.0133    4.7948    6.6817 O   0  0  0  1  0  2  0  0  0  0  0  0
   23.6867    8.0443   -1.3812 O   0  0  0  1  0  2  0  0  0  0  0  0
   18.9723    5.3500    5.7407 I   0  0  0  1  0  1  0  0  0  0  0  0
   23.5397    4.1450    6.8182 H   0  0  0  1  0  1  0  0  0  0  0  0
   21.1208    4.7029    6.9935 H   0  0  0  1  0  1  0  0  0  0  0  0
   19.8920    6.4338    2.9412 H   0  0  0  1  0  1  0  0  0  0  0  0
   25.3150    5.0604    4.6908 H   0  0  0  1  0  1  0  0  0  0  0  0
   24.8464    6.1543    6.0367 H   0  0  0  1  0  1  0  0  0  0  0  0
   24.2539    0.5650    8.8412 H   0  0  0  1  0  1  0  0  0  0  0  0
   25.4009    5.0775    7.9629 H   0  0  0  1  0  1  0  0  0  0  0  0
   26.4716    4.0970    6.9042 H   0  0  0  1  0  1  0  0  0  0  0  0
   24.2089    6.2772    2.9680 H   0  0  0  1  0  1  0  0  0  0  0  0
   24.3363    2.9945    8.8130 H   0  0  0  1  0  1  0  0  0  0  0  0
   26.1094    2.9884    9.1033 H   0  0  0  1  0  1  0  0  0  0  0  0
   26.4576    1.5618    7.1241 H   0  0  0  1  0  1  0  0  0  0  0  0
   27.0958    0.1256    9.4556 H   0  0  0  1  0  1  0  0  0  0  0  0
   25.6759   -0.4270   10.4069 H   0  0  0  1  0  1  0  0  0  0  0  0
   26.4805    2.4767    9.8886 H   0  0  0  1  0  1  0  0  0  0  0  0
   26.6943    1.5717   11.4249 H   0  0  0  1  0  1  0  0  0  0  0  0
   25.0435    1.9360   10.8194 H   0  0  0  1  0  1  0  0  0  0  0  0
   26.2558   -1.1147    7.4299 H   0  0  0  1  0  1  0  0  0  0  0  0
   24.5996   -0.7820    6.8165 H   0  0  0  1  0  1  0  0  0  0  0  0
   24.6784   -2.9440    8.0074 H   0  0  0  1  0  1  0  0  0  0  0  0
   23.6449   -1.7676    8.8872 H   0  0  0  1  0  1  0  0  0  0  0  0
   25.3042   -2.1208    9.4762 H   0  0  0  1  0  1  0  0  0  0  0  0
   23.4051    1.6057    6.8739 H   0  0  0  1  0  1  0  0  0  0  0  0
   24.5636    0.7326    5.8138 H   0  0  0  1  0  1  0  0  0  0  0  0
   25.5270    2.8597    5.0527 H   0  0  0  1  0  1  0  0  0  0  0  0
   23.7488    2.8655    4.7929 H   0  0  0  1  0  1  0  0  0  0  0  0
   21.8525    8.9238   -1.0225 H   0  0  0  1  0  1  0  0  0  0  0  0
   21.8016    7.2575   -1.6919 H   0  0  0  1  0  1  0  0  0  0  0  0
   23.7358    8.3970   -2.2619 H   0  0  0  1  0  1  0  0  0  0  0  0
  1  6  1  0  0  0  0
  1  7  1  0  0  0  0
  1 18  1  0  0  0  0
  1 25  1  0  0  0  0
  2 12  1  0  0  0  0
  2 13  1  0  0  0  0
  2 15  1  0  0  0  0
  2 30  1  0  0  0  0
  3  5  2  0  0  0  0
  3  8  1  0  0  0  0
  3 19  1  0  0  0  0
  4  6  1  0  0  0  0
  4  8  2  0  0  0  0
  4 10  1  0  0  0  0
  5  9  1  0  0  0  0
  5 27  1  0  0  0  0
  6 28  1  0  0  0  0
  6 29  1  0  0  0  0
  7 11  1  0  0  0  0
  7 31  1  0  0  0  0
  7 32  1  0  0  0  0
  8 33  1  0  0  0  0
  9 10  2  0  0  0  0
  9 24  1  0  0  0  0
 10 22  1  0  0  0  0
 11 12  1  0  0  0  0
 11 34  1  0  0  0  0
 11 35  1  0  0  0  0
 12 17  1  0  0  0  0
 12 36  1  0  0  0  0
 13 14  1  0  0  0  0
 13 37  1  0  0  0  0
 13 38  1  0  0  0  0
 14 39  1  0  0  0  0
 14 40  1  0  0  0  0
 14 41  1  0  0  0  0
 15 16  1  0  0  0  0
 15 42  1  0  0  0  0
 15 43  1  0  0  0  0
 16 44  1  0  0  0  0
 16 45  1  0  0  0  0
 16 46  1  0  0  0  0
 17 18  1  0  0  0  0
 17 47  1  0  0  0  0
 17 48  1  0  0  0  0
 18 49  1  0  0  0  0
 18 50  1  0  0  0  0
 19 20  3  0  0  0  0
 20 21  1  0  0  0  0
 21 23  1  0  0  0  0
 21 51  1  0  0  0  0
 21 52  1  0  0  0  0
 22 26  1  0  0  0  0
 23 53  1  0  0  0  0
M  END
> <ConfScore>
-0.455901 

$$$$
4agn


 53 54  0  0  0  0  0  0  0  0999 V2000
    2.5209    6.6299    6.3322 N   0  3  0  1  0  4  0  0  0  0  0  0
    1.3416    8.7866    9.1336 N   0  3  0  1  0  4  0  0  0  0  0  0
    3.6103    2.8336    9.3828 C   0  0  0  1  0  3  0  0  0  0  0  0
    2.7964    4.5557    7.8816 C   0  0  0  1  0  3  0  0  0  0  0  0
    2.8762    3.4032   10.4360 C   0  0  0  1  0  3  0  0  0  0  0  0
    2.7438    5.1386    6.4710 C   0  0  0  1  0  4  0  0  0  0  0  0
    1.0783    6.9623    6.6507 C   0  0  0  1  0  4  0  0  0  0  0  0
    3.5663    3.4124    8.1002 C   0  0  0  1  0  3  0  0  0  0  0  0
    2.1097    4.5571   10.1787 C   0  0  0  1  0  3  0  0  0  0  0  0
    2.0402    5.1590    8.9164 C   0  0  0  1  0  3  0  0  0  0  0  0
    0.8308    8.4545    6.7078 C   0  0  0  1  0  4  0  0  0  0  0  0
    1.7396    9.1749    7.6909 C   0  0  0  1  0  4  0  0  0  0  0  0
   -0.0767    9.1314    9.5718 C   0  0  0  1  0  4  0  0  0  0  0  0
   -0.2915   10.6348    9.6674 C   0  0  0  1  0  4  0  0  0  0  0  0
    2.3834    9.3140   10.1411 C   0  0  0  1  0  4  0  0  0  0  0  0
    2.2945   10.8280   10.2392 C   0  0  0  1  0  4  0  0  0  0  0  0
    3.1859    8.7850    7.4475 C   0  0  0  1  0  4  0  0  0  0  0  0
    3.3964    7.2849    7.3752 C   0  0  0  1  0  4  0  0  0  0  0  0
    4.4244    1.6728    9.5607 C   0  0  0  1  0  2  0  0  0  0  0  0
    5.1105    0.6988    9.7002 C   0  0  0  1  0  2  0  0  0  0  0  0
    5.9469   -0.4901    9.8740 C   0  0  0  1  0  4  0  0  0  0  0  0
    1.3151    6.2864    8.6638 O   0  0  0  1  0  2  0  0  0  0  0  0
    6.5685   -0.8391    8.6427 O   0  0  0  1  0  2  0  0  0  0  0  0
    0.9603    5.4118   11.7542 I   0  0  0  1  0  1  0  0  0  0  0  0
    2.7338    6.9425    5.3977 H   0  0  0  1  0  1  0  0  0  0  0  0
    0.8703    6.5604    9.4571 H   0  0  0  1  0  1  0  0  0  0  0  0
    2.8993    2.9643   11.4264 H   0  0  0  1  0  1  0  0  0  0  0  0
    3.7008    4.9030    5.9827 H   0  0  0  1  0  1  0  0  0  0  0  0
    1.9252    4.6334    5.9375 H   0  0  0  1  0  1  0  0  0  0  0  0
    1.3939    7.7805    9.1663 H   0  0  0  1  0  1  0  0  0  0  0  0
    0.8217    6.5239    7.6263 H   0  0  0  1  0  1  0  0  0  0  0  0
    0.4348    6.5267    5.8716 H   0  0  0  1  0  1  0  0  0  0  0  0
    4.1277    2.9702    7.2849 H   0  0  0  1  0  1  0  0  0  0  0  0
   -0.2137    8.6243    7.0083 H   0  0  0  1  0  1  0  0  0  0  0  0
    0.9974    8.8751    5.7050 H   0  0  0  1  0  1  0  0  0  0  0  0
    1.6289   10.2616    7.5592 H   0  0  0  1  0  1  0  0  0  0  0  0
   -0.2642    8.6824   10.5577 H   0  0  0  1  0  1  0  0  0  0  0  0
   -0.7856    8.7175    8.8391 H   0  0  0  1  0  1  0  0  0  0  0  0
    0.4081   11.0591   10.4012 H   0  0  0  1  0  1  0  0  0  0  0  0
   -1.3247   10.8378    9.9851 H   0  0  0  1  0  1  0  0  0  0  0  0
   -0.1142   11.0939    8.6837 H   0  0  0  1  0  1  0  0  0  0  0  0
    3.3924    9.0308    9.8038 H   0  0  0  1  0  1  0  0  0  0  0  0
    2.1899    8.8742   11.1302 H   0  0  0  1  0  1  0  0  0  0  0  0
    1.2877   11.1150   10.5773 H   0  0  0  1  0  1  0  0  0  0  0  0
    2.4902   11.2708    9.2522 H   0  0  0  1  0  1  0  0  0  0  0  0
    3.0411   11.1927   10.9596 H   0  0  0  1  0  1  0  0  0  0  0  0
    3.7988    9.1848    8.2693 H   0  0  0  1  0  1  0  0  0  0  0  0
    3.5123    9.2299    6.4961 H   0  0  0  1  0  1  0  0  0  0  0  0
    4.4501    7.0876    7.1265 H   0  0  0  1  0  1  0  0  0  0  0  0
    3.1629    6.8478    8.3574 H   0  0  0  1  0  1  0  0  0  0  0  0
    5.3212   -1.3277   10.2148 H   0  0  0  1  0  1  0  0  0  0  0  0
    6.7224   -0.2816   10.6263 H   0  0  0  1  0  1  0  0  0  0  0  0
    7.1074   -1.6110    8.7693 H   0  0  0  1  0  1  0  0  0  0  0  0
  1  6  1  0  0  0  0
  1  7  1  0  0  0  0
  1 18  1  0  0  0  0
  1 25  1  0  0  0  0
  2 12  1  0  0  0  0
  2 13  1  0  0  0  0
  2 15  1  0  0  0  0
  2 30  1  0  0  0  0
  3  5  2  0  0  0  0
  3  8  1  0  0  0  0
  3 19  1  0  0  0  0
  4  6  1  0  0  0  0
  4  8  2  0  0  0  0
  4 10  1  0  0  0  0
  5  9  1  0  0  0  0
  5 27  1  0  0  0  0
  6 28  1  0  0  0  0
  6 29  1  0  0  0  0
  7 11  1  0  0  0  0
  7 31  1  0  0  0  0
  7 32  1  0  0  0  0
  8 33  1  0  0  0  0
  9 10  2  0  0  0  0
  9 24  1  0  0  0  0
 10 22  1  0  0  0  0
 11 12  1  0  0  0  0
 11 34  1  0  0  0  0
 11 35  1  0  0  0  0
 12 17  1  0  0  0  0
 12 36  1  0  0  0  0
 13 14  1  0  0  0  0
 13 37  1  0  0  0  0
 13 38  1  0  0  0  0
 14 39  1  0  0  0  0
 14 40  1  0  0  0  0
 14 41  1  0  0  0  0
 15 16  1  0  0  0  0
 15 42  1  0  0  0  0
 15 43  1  0  0  0  0
 16 44  1  0  0  0  0
 16 45  1  0  0  0  0
 16 46  1  0  0  0  0
 17 18  1  0  0  0  0
 17 47  1  0  0  0  0
 17 48  1  0  0  0  0
 18 49  1  0  0  0  0
 18 50  1  0  0  0  0
 19 20  3  0  0  0  0
 20 21  1  0  0  0  0
 21 23  1  0  0  0  0
 21 51  1  0  0  0  0
 21 52  1  0  0  0  0
 22 26  1  0  0  0  0
 23 53  1  0  0  0  0
M  END
> <ConfScore>
-0.453436 

$$$$
4agn


 53 54  0  0  0  0  0  0  0  0999 V2000
   24.4330    4.1140    6.3520 N   0  3  0  1  0  4  0  0  0  0  0  0
   25.1964    0.4472    8.5037 N   0  3  0  1  0  4  0  0  0  0  0  0
   22.0482    6.4750    2.8232 C   0  0  0  1  0  3  0  0  0  0  0  0
   23.2178    5.5700    4.7453 C   0  0  0  1  0  3  0  0  0  0  0  0
   20.8173    6.1968    3.4398 C   0  0  0  1  0  3  0  0  0  0  0  0
   24.5480    5.2730    5.4500 C   0  0  0  1  0  4  0  0  0  0  0  0
   25.4840    4.1440    7.3870 C   0  0  0  1  0  4  0  0  0  0  0  0
   23.2523    6.1621    3.4820 C   0  0  0  1  0  3  0  0  0  0  0  0
   20.8206    5.5989    4.7156 C   0  0  0  1  0  3  0  0  0  0  0  0
   21.9975    5.2757    5.4018 C   0  0  0  1  0  3  0  0  0  0  0  0
   25.3250    2.9490    8.3330 C   0  0  0  1  0  4  0  0  0  0  0  0
   25.4480    1.6410    7.5540 C   0  0  0  1  0  4  0  0  0  0  0  0
   23.7684    0.2515    8.9985 C   0  0  0  1  0  4  0  0  0  0  0  0
   22.7496    0.4547    7.8866 C   0  0  0  1  0  4  0  0  0  0  0  0
   26.1977    0.4705    9.6765 C   0  0  0  1  0  4  0  0  0  0  0  0
   25.8184    1.5610   10.6648 C   0  0  0  1  0  4  0  0  0  0  0  0
   24.4130    1.6290    6.4330 C   0  0  0  1  0  4  0  0  0  0  0  0
   24.5460    2.8760    5.5510 C   0  0  0  1  0  4  0  0  0  0  0  0
   22.1349    7.0663    1.5252 C   0  0  0  1  0  2  0  0  0  0  0  0
   22.2177    7.5623    0.4363 C   0  0  0  1  0  2  0  0  0  0  0  0
   22.3153    8.1678   -0.8931 C   0  0  0  1  0  4  0  0  0  0  0  0
   22.0088    4.6802    6.6289 O   0  0  0  1  0  2  0  0  0  0  0  0
   23.6800    8.3321   -1.2603 O   0  0  0  1  0  2  0  0  0  0  0  0
   18.9644    5.2051    5.6816 I   0  0  0  1  0  1  0  0  0  0  0  0
   23.5397    4.1450    6.8182 H   0  0  0  1  0  1  0  0  0  0  0  0
   21.1158    4.5530    6.9266 H   0  0  0  1  0  1  0  0  0  0  0  0
   19.8842    6.4368    2.9440 H   0  0  0  1  0  1  0  0  0  0  0  0
   25.3150    5.0604    4.6908 H   0  0  0  1  0  1  0  0  0  0  0  0
   24.8464    6.1543    6.0367 H   0  0  0  1  0  1  0  0  0  0  0  0
   25.4067   -0.3769    7.9627 H   0  0  0  1  0  1  0  0  0  0  0  0
   25.4009    5.0775    7.9629 H   0  0  0  1  0  1  0  0  0  0  0  0
   26.4716    4.0970    6.9042 H   0  0  0  1  0  1  0  0  0  0  0  0
   24.2032    6.3819    3.0098 H   0  0  0  1  0  1  0  0  0  0  0  0
   24.3363    2.9945    8.8130 H   0  0  0  1  0  1  0  0  0  0  0  0
   26.1094    2.9884    9.1033 H   0  0  0  1  0  1  0  0  0  0  0  0
   26.4576    1.5618    7.1241 H   0  0  0  1  0  1  0  0  0  0  0  0
   23.5670    0.9752    9.8014 H   0  0  0  1  0  1  0  0  0  0  0  0
   23.6654   -0.7710    9.3917 H   0  0  0  1  0  1  0  0  0  0  0  0
   22.8392    1.4755    7.4895 H   0  0  0  1  0  1  0  0  0  0  0  0
   21.7360    0.3039    8.2863 H   0  0  0  1  0  1  0  0  0  0  0  0
   22.9368   -0.2701    7.0808 H   0  0  0  1  0  1  0  0  0  0  0  0
   27.2089    0.6680    9.2885 H   0  0  0  1  0  1  0  0  0  0  0  0
   26.1841   -0.5031   10.1875 H   0  0  0  1  0  1  0  0  0  0  0  0
   24.8088    1.3664   11.0559 H   0  0  0  1  0  1  0  0  0  0  0  0
   25.8337    2.5362   10.1574 H   0  0  0  1  0  1  0  0  0  0  0  0
   26.5385    1.5685   11.4960 H   0  0  0  1  0  1  0  0  0  0  0  0
   23.4051    1.6057    6.8739 H   0  0  0  1  0  1  0  0  0  0  0  0
   24.5636    0.7326    5.8138 H   0  0  0  1  0  1  0  0  0  0  0  0
   25.5270    2.8597    5.0527 H   0  0  0  1  0  1  0  0  0  0  0  0
   23.7488    2.8655    4.7929 H   0  0  0  1  0  1  0  0  0  0  0  0
   21.8217    9.1504   -0.8818 H   0  0  0  1  0  1  0  0  0  0  0  0
   21.8177    7.5156   -1.6265 H   0  0  0  1  0  1  0  0  0  0  0  0
   23.7290    8.7255   -2.1236 H   0  0  0  1  0  1  0  0  0  0  0  0
  1  6  1  0  0  0  0
  1  7  1  0  0  0  0
  1 18  1  0  0  0  0
  1 25  1  0  0  0  0
  2 12  1  0  0  0  0
  2 13  1  0  0  0  0
  2 15  1  0  0  0  0
  2 30  1  0  0  0  0
  3  5  2  0  0  0  0
  3  8  1  0  0  0  0
  3 19  1  0  0  0  0
  4  6  1  0  0  0  0
  4  8  2  0  0  0  0
  4 10  1  0  0  0  0
  5  9  1  0  0  0  0
  5 27  1  0  0  0  0
  6 28  1  0  0  0  0
  6 29  1  0  0  0  0
  7 11  1  0  0  0  0
  7 31  1  0  0  0  0
  7 32  1  0  0  0  0
  8 33  1  0  0  0  0
  9 10  2  0  0  0  0
  9 24  1  0  0  0  0
 10 22  1  0  0  0  0
 11 12  1  0  0  0  0
 11 34  1  0  0  0  0
 11 35  1  0  0  0  0
 12 17  1  0  0  0  0
 12 36  1  0  0  0  0
 13 14  1  0  0  0  0
 13 37  1  0  0  0  0
 13 38  1  0  0  0  0
 14 39  1  0  0  0  0
 14 40  1  0  0  0  0
 14 41  1  0  0  0  0
 15 16  1  0  0  0  0
 15 42  1  0  0  0  0
 15 43  1  0  0  0  0
 16 44  1  0  0  0  0
 16 45  1  0  0  0  0
 16 46  1  0  0  0  0
 17 18  1  0  0  0  0
 17 47  1  0  0  0  0
 17 48  1  0  0  0  0
 18 49  1  0  0  0  0
 18 50  1  0  0  0  0
 19 20  3  0  0  0  0
 20 21  1  0  0  0  0
 21 23  1  0  0  0  0
 21 51  1  0  0  0  0
 21 52  1  0  0  0  0
 22 26  1  0  0  0  0
 23 53  1  0  0  0  0
M  END
> <ConfScore>
-0.439982 

$$$$
4agn


 53 54  0  0  0  0  0  0  0  0999 V2000
   24.4330    4.1140    6.3520 N   0  3  0  1  0  4  0  0  0  0  0  0
   25.1964    0.4472    8.5037 N   0  3  0  1  0  4  0  0  0  0  0  0
   22.0475    6.4909    2.8312 C   0  0  0  1  0  3  0  0  0  0  0  0
   23.2178    5.5700    4.7453 C   0  0  0  1  0  3  0  0  0  0  0  0
   20.8168    6.1972    3.4409 C   0  0  0  1  0  3  0  0  0  0  0  0
   24.5480    5.2730    5.4500 C   0  0  0  1  0  4  0  0  0  0  0  0
   25.4840    4.1440    7.3870 C   0  0  0  1  0  4  0  0  0  0  0  0
   23.2519    6.1777    3.4894 C   0  0  0  1  0  3  0  0  0  0  0  0
   20.8205    5.5839    4.7094 C   0  0  0  1  0  3  0  0  0  0  0  0
   21.9977    5.2598    5.3948 C   0  0  0  1  0  3  0  0  0  0  0  0
   25.3250    2.9490    8.3330 C   0  0  0  1  0  4  0  0  0  0  0  0
   25.4480    1.6410    7.5540 C   0  0  0  1  0  4  0  0  0  0  0  0
   25.2751   -0.9464    7.8920 C   0  0  0  1  0  4  0  0  0  0  0  0
   26.4519   -1.0812    6.9369 C   0  0  0  1  0  4  0  0  0  0  0  0
   23.8790    0.6445    9.2810 C   0  0  0  1  0  4  0  0  0  0  0  0
   22.6982    0.6049    8.3250 C   0  0  0  1  0  4  0  0  0  0  0  0
   24.4130    1.6290    6.4330 C   0  0  0  1  0  4  0  0  0  0  0  0
   24.5460    2.8760    5.5510 C   0  0  0  1  0  4  0  0  0  0  0  0
   22.1338    7.0984    1.5407 C   0  0  0  1  0  2  0  0  0  0  0  0
   22.2164    7.6082    0.4581 C   0  0  0  1  0  2  0  0  0  0  0  0
   22.3136    8.2305   -0.8635 C   0  0  0  1  0  4  0  0  0  0  0  0
   22.0095    4.6495    6.6146 O   0  0  0  1  0  2  0  0  0  0  0  0
   23.6782    8.4081   -1.2250 O   0  0  0  1  0  2  0  0  0  0  0  0
   18.9643    5.1664    5.6654 I   0  0  0  1  0  1  0  0  0  0  0  0
   23.5397    4.1450    6.8182 H   0  0  0  1  0  1  0  0  0  0  0  0
   21.1166    4.5130    6.9083 H   0  0  0  1  0  1  0  0  0  0  0  0
   19.8835    6.4372    2.9455 H   0  0  0  1  0  1  0  0  0  0  0  0
   25.3150    5.0604    4.6908 H   0  0  0  1  0  1  0  0  0  0  0  0
   24.8464    6.1543    6.0367 H   0  0  0  1  0  1  0  0  0  0  0  0
   25.9394    0.4824    9.1840 H   0  0  0  1  0  1  0  0  0  0  0  0
   25.4009    5.0775    7.9629 H   0  0  0  1  0  1  0  0  0  0  0  0
   26.4716    4.0970    6.9042 H   0  0  0  1  0  1  0  0  0  0  0  0
   24.2026    6.4093    3.0225 H   0  0  0  1  0  1  0  0  0  0  0  0
   24.3363    2.9945    8.8130 H   0  0  0  1  0  1  0  0  0  0  0  0
   26.1094    2.9884    9.1033 H   0  0  0  1  0  1  0  0  0  0  0  0
   26.4576    1.5618    7.1241 H   0  0  0  1  0  1  0  0  0  0  0  0
   24.3452   -1.1466    7.3406 H   0  0  0  1  0  1  0  0  0  0  0  0
   25.3882   -1.6837    8.7009 H   0  0  0  1  0  1  0  0  0  0  0  0
   26.4815   -2.1032    6.5337 H   0  0  0  1  0  1  0  0  0  0  0  0
   27.3874   -0.8722    7.4763 H   0  0  0  1  0  1  0  0  0  0  0  0
   26.3378   -0.3642    6.1107 H   0  0  0  1  0  1  0  0  0  0  0  0
   23.8998    1.6196    9.7918 H   0  0  0  1  0  1  0  0  0  0  0  0
   23.7705   -0.1577   10.0252 H   0  0  0  1  0  1  0  0  0  0  0  0
   22.6732   -0.3687    7.8134 H   0  0  0  1  0  1  0  0  0  0  0  0
   22.8024    1.4077    7.5811 H   0  0  0  1  0  1  0  0  0  0  0  0
   21.7651    0.7466    8.8895 H   0  0  0  1  0  1  0  0  0  0  0  0
   23.4051    1.6057    6.8739 H   0  0  0  1  0  1  0  0  0  0  0  0
   24.5636    0.7326    5.8138 H   0  0  0  1  0  1  0  0  0  0  0  0
   25.5270    2.8597    5.0527 H   0  0  0  1  0  1  0  0  0  0  0  0
   23.7488    2.8655    4.7929 H   0  0  0  1  0  1  0  0  0  0  0  0
   21.8137    9.2097   -0.8416 H   0  0  0  1  0  1  0  0  0  0  0  0
   21.8222    7.5841   -1.6062 H   0  0  0  1  0  1  0  0  0  0  0  0
   23.7270    8.8123   -2.0832 H   0  0  0  1  0  1  0  0  0  0  0  0
  1  6  1  0  0  0  0
  1  7  1  0  0  0  0
  1 18  1  0  0  0  0
  1 25  1  0  0  0  0
  2 12  1  0  0  0  0
  2 13  1  0  0  0  0
  2 15  1  0  0  0  0
  2 30  1  0  0  0  0
  3  5  2  0  0  0  0
  3  8  1  0  0  0  0
  3 19  1  0  0  0  0
  4  6  1  0  0  0  0
  4  8  2  0  0  0  0
  4 10  1  0  0  0  0
  5  9  1  0  0  0  0
  5 27  1  0  0  0  0
  6 28  1  0  0  0  0
  6 29  1  0  0  0  0
  7 11  1  0  0  0  0
  7 31  1  0  0  0  0
  7 32  1  0  0  0  0
  8 33  1  0  0  0  0
  9 10  2  0  0  0  0
  9 24  1  0  0  0  0
 10 22  1  0  0  0  0
 11 12  1  0  0  0  0
 11 34  1  0  0  0  0
 11 35  1  0  0  0  0
 12 17  1  0  0  0  0
 12 36  1  0  0  0  0
 13 14  1  0  0  0  0
 13 37  1  0  0  0  0
 13 38  1  0  0  0  0
 14 39  1  0  0  0  0
 14 40  1  0  0  0  0
 14 41  1  0  0  0  0
 15 16  1  0  0  0  0
 15 42  1  0  0  0  0
 15 43  1  0  0  0  0
 16 44  1  0  0  0  0
 16 45  1  0  0  0  0
 16 46  1  0  0  0  0
 17 18  1  0  0  0  0
 17 47  1  0  0  0  0
 17 48  1  0  0  0  0
 18 49  1  0  0  0  0
 18 50  1  0  0  0  0
 19 20  3  0  0  0  0
 20 21  1  0  0  0  0
 21 23  1  0  0  0  0
 21 51  1  0  0  0  0
 21 52  1  0  0  0  0
 22 26  1  0  0  0  0
 23 53  1  0  0  0  0
M  END
> <ConfScore>
-0.439333 

$$$$
4agn


 53 54  0  0  0  0  0  0  0  0999 V2000
   90.4980   98.3810  -44.6910 N   0  3  0  1  0  4  0  0  0  0  0  0
   92.0509  102.3792  -44.2366 N   0  3  0  1  0  4  0  0  0  0  0  0
   91.0721   93.5656  -45.1146 C   0  0  0  1  0  3  0  0  0  0  0  0
   90.4953   95.8979  -44.7834 C   0  0  0  1  0  3  0  0  0  0  0  0
   91.5238   93.4877  -43.7870 C   0  0  0  1  0  3  0  0  0  0  0  0
   89.9050   97.1660  -45.3350 C   0  0  0  1  0  4  0  0  0  0  0  0
   89.5430   99.5450  -44.7170 C   0  0  0  1  0  4  0  0  0  0  0  0
   90.5533   94.7762  -45.6118 C   0  0  0  1  0  3  0  0  0  0  0  0
   91.4498   94.6399  -42.9793 C   0  0  0  1  0  3  0  0  0  0  0  0
   90.9384   95.8597  -43.4385 C   0  0  0  1  0  3  0  0  0  0  0  0
   90.1750  100.7310  -44.0050 C   0  0  0  1  0  4  0  0  0  0  0  0
   91.4300  101.0810  -44.8020 C   0  0  0  1  0  4  0  0  0  0  0  0
   91.1600  103.6155  -44.2171 C   0  0  0  1  0  4  0  0  0  0  0  0
   91.8783  104.8235  -43.6338 C   0  0  0  1  0  4  0  0  0  0  0  0
   93.4022  102.6729  -44.9196 C   0  0  0  1  0  4  0  0  0  0  0  0
   93.1769  103.0946  -46.3622 C   0  0  0  1  0  4  0  0  0  0  0  0
   92.4510   99.9400  -44.6950 C   0  0  0  1  0  4  0  0  0  0  0  0
   91.8210   98.7070  -45.3220 C   0  0  0  1  0  4  0  0  0  0  0  0
   91.1249   92.4494  -46.0051 C   0  0  0  1  0  2  0  0  0  0  0  0
   91.1651   91.5182  -46.7600 C   0  0  0  1  0  2  0  0  0  0  0  0
   91.2156   90.3795  -47.6788 C   0  0  0  1  0  4  0  0  0  0  0  0
   90.8804   96.9842  -42.6685 O   0  0  0  1  0  2  0  0  0  0  0  0
   90.6935   90.7488  -48.9498 O   0  0  0  1  0  2  0  0  0  0  0  0
   92.0945   94.5297  -40.9530 I   0  0  0  1  0  1  0  0  0  0  0  0
   90.6653   98.1804  -43.7174 H   0  0  0  1  0  1  0  0  0  0  0  0
   91.2130   96.7900  -41.8001 H   0  0  0  1  0  1  0  0  0  0  0  0
   91.9216   92.5604  -43.3922 H   0  0  0  1  0  1  0  0  0  0  0  0
   90.0974   97.2069  -46.4172 H   0  0  0  1  0  1  0  0  0  0  0  0
   88.8199   97.1614  -45.1549 H   0  0  0  1  0  1  0  0  0  0  0  0
   92.2547  102.1818  -43.2695 H   0  0  0  1  0  1  0  0  0  0  0  0
   88.6095   99.2654  -44.2068 H   0  0  0  1  0  1  0  0  0  0  0  0
   89.3241   99.8172  -45.7604 H   0  0  0  1  0  1  0  0  0  0  0  0
   90.1986   94.8361  -46.6346 H   0  0  0  1  0  1  0  0  0  0  0  0
   90.4413  100.4593  -42.9728 H   0  0  0  1  0  1  0  0  0  0  0  0
   89.4801  101.5838  -43.9926 H   0  0  0  1  0  1  0  0  0  0  0  0
   91.1611  101.2321  -45.8581 H   0  0  0  1  0  1  0  0  0  0  0  0
   90.2695  103.4035  -43.6081 H   0  0  0  1  0  1  0  0  0  0  0  0
   90.8530  103.8486  -45.2476 H   0  0  0  1  0  1  0  0  0  0  0  0
   91.2020  105.6898  -43.6390 H   0  0  0  1  0  1  0  0  0  0  0  0
   92.7681  105.0487  -44.2400 H   0  0  0  1  0  1  0  0  0  0  0  0
   92.1854  104.6041  -42.6007 H   0  0  0  1  0  1  0  0  0  0  0  0
   94.0253  101.7654  -44.8999 H   0  0  0  1  0  1  0  0  0  0  0  0
   93.9153  103.4825  -44.3807 H   0  0  0  1  0  1  0  0  0  0  0  0
   94.1450  103.3187  -46.8341 H   0  0  0  1  0  1  0  0  0  0  0  0
   92.5408  103.9910  -46.3864 H   0  0  0  1  0  1  0  0  0  0  0  0
   92.6823  102.2788  -46.9093 H   0  0  0  1  0  1  0  0  0  0  0  0
   92.6879   99.7452  -43.6383 H   0  0  0  1  0  1  0  0  0  0  0  0
   93.3715  100.2074  -45.2344 H   0  0  0  1  0  1  0  0  0  0  0  0
   91.6686   98.8910  -46.3962 H   0  0  0  1  0  1  0  0  0  0  0  0
   92.5004   97.8520  -45.1886 H   0  0  0  1  0  1  0  0  0  0  0  0
   90.6177   89.5536  -47.2669 H   0  0  0  1  0  1  0  0  0  0  0  0
   92.2601   90.0535  -47.7959 H   0  0  0  1  0  1  0  0  0  0  0  0
   90.7319   90.0019  -49.5355 H   0  0  0  1  0  1  0  0  0  0  0  0
  1  6  1  0  0  0  0
  1  7  1  0  0  0  0
  1 18  1  0  0  0  0
  1 25  1  0  0  0  0
  2 12  1  0  0  0  0
  2 13  1  0  0  0  0
  2 15  1  0  0  0  0
  2 30  1  0  0  0  0
  3  5  2  0  0  0  0
  3  8  1  0  0  0  0
  3 19  1  0  0  0  0
  4  6  1  0  0  0  0
  4  8  2  0  0  0  0
  4 10  1  0  0  0  0
  5  9  1  0  0  0  0
  5 27  1  0  0  0  0
  6 28  1  0  0  0  0
  6 29  1  0  0  0  0
  7 11  1  0  0  0  0
  7 31  1  0  0  0  0
  7 32  1  0  0  0  0
  8 33  1  0  0  0  0
  9 10  2  0  0  0  0
  9 24  1  0  0  0  0
 10 22  1  0  0  0  0
 11 12  1  0  0  0  0
 11 34  1  0  0  0  0
 11 35  1  0  0  0  0
 12 17  1  0  0  0  0
 12 36  1  0  0  0  0
 13 14  1  0  0  0  0
 13 37  1  0  0  0  0
 13 38  1  0  0  0  0
 14 39  1  0  0  0  0
 14 40  1  0  0  0  0
 14 41  1  0  0  0  0
 15 16  1  0  0  0  0
 15 42  1  0  0  0  0
 15 43  1  0  0  0  0
 16 44  1  0  0  0  0
 16 45  1  0  0  0  0
 16 46  1  0  0  0  0
 17 18  1  0  0  0  0
 17 47  1  0  0  0  0
 17 48  1  0  0  0  0
 18 49  1  0  0  0  0
 18 50  1  0  0  0  0
 19 20  3  0  0  0  0
 20 21  1  0  0  0  0
 21 23  1  0  0  0  0
 21 51  1  0  0  0  0
 21 52  1  0  0  0  0
 22 26  1  0  0  0  0
 23 53  1  0  0  0  0
M  END
> <ConfScore>
-0.438889 

$$$$
4agn


 53 54  0  0  0  0  0  0  0  0999 V2000
   90.4980   98.3810  -44.6910 N   0  3  0  1  0  4  0  0  0  0  0  0
   92.0509  102.3792  -44.2366 N   0  3  0  1  0  4  0  0  0  0  0  0
   91.0721   93.5656  -45.1146 C   0  0  0  1  0  3  0  0  0  0  0  0
   90.4953   95.8979  -44.7834 C   0  0  0  1  0  3  0  0  0  0  0  0
   91.5238   93.4877  -43.7870 C   0  0  0  1  0  3  0  0  0  0  0  0
   89.9050   97.1660  -45.3350 C   0  0  0  1  0  4  0  0  0  0  0  0
   89.5430   99.5450  -44.7170 C   0  0  0  1  0  4  0  0  0  0  0  0
   90.5533   94.7762  -45.6118 C   0  0  0  1  0  3  0  0  0  0  0  0
   91.4498   94.6399  -42.9793 C   0  0  0  1  0  3  0  0  0  0  0  0
   90.9384   95.8597  -43.4385 C   0  0  0  1  0  3  0  0  0  0  0  0
   90.1750  100.7310  -44.0050 C   0  0  0  1  0  4  0  0  0  0  0  0
   91.4300  101.0810  -44.8020 C   0  0  0  1  0  4  0  0  0  0  0  0
   91.1600  103.6155  -44.2171 C   0  0  0  1  0  4  0  0  0  0  0  0
   91.8783  104.8235  -43.6338 C   0  0  0  1  0  4  0  0  0  0  0  0
   93.4022  102.6729  -44.9196 C   0  0  0  1  0  4  0  0  0  0  0  0
   93.1769  103.0946  -46.3622 C   0  0  0  1  0  4  0  0  0  0  0  0
   92.4510   99.9400  -44.6950 C   0  0  0  1  0  4  0  0  0  0  0  0
   91.8210   98.7070  -45.3220 C   0  0  0  1  0  4  0  0  0  0  0  0
   91.1249   92.4494  -46.0051 C   0  0  0  1  0  2  0  0  0  0  0  0
   91.1651   91.5182  -46.7600 C   0  0  0  1  0  2  0  0  0  0  0  0
   91.2156   90.3795  -47.6788 C   0  0  0  1  0  4  0  0  0  0  0  0
   90.8804   96.9842  -42.6685 O   0  0  0  1  0  2  0  0  0  0  0  0
   90.6935   90.7488  -48.9498 O   0  0  0  1  0  2  0  0  0  0  0  0
   92.0945   94.5297  -40.9530 I   0  0  0  1  0  1  0  0  0  0  0  0
   90.6653   98.1804  -43.7174 H   0  0  0  1  0  1  0  0  0  0  0  0
   91.2130   96.7900  -41.8001 H   0  0  0  1  0  1  0  0  0  0  0  0
   91.9216   92.5604  -43.3922 H   0  0  0  1  0  1  0  0  0  0  0  0
   90.0974   97.2069  -46.4172 H   0  0  0  1  0  1  0  0  0  0  0  0
   88.8199   97.1614  -45.1549 H   0  0  0  1  0  1  0  0  0  0  0  0
   92.2547  102.1818  -43.2695 H   0  0  0  1  0  1  0  0  0  0  0  0
   88.6095   99.2654  -44.2068 H   0  0  0  1  0  1  0  0  0  0  0  0
   89.3241   99.8172  -45.7604 H   0  0  0  1  0  1  0  0  0  0  0  0
   90.1986   94.8361  -46.6346 H   0  0  0  1  0  1  0  0  0  0  0  0
   90.4413  100.4593  -42.9728 H   0  0  0  1  0  1  0  0  0  0  0  0
   89.4801  101.5838  -43.9926 H   0  0  0  1  0  1  0  0  0  0  0  0
   91.1611  101.2321  -45.8581 H   0  0  0  1  0  1  0  0  0  0  0  0
   90.2695  103.4035  -43.6081 H   0  0  0  1  0  1  0  0  0  0  0  0
   90.8530  103.8486  -45.2476 H   0  0  0  1  0  1  0  0  0  0  0  0
   91.2020  105.6898  -43.6390 H   0  0  0  1  0  1  0  0  0  0  0  0
   92.7681  105.0487  -44.2400 H   0  0  0  1  0  1  0  0  0  0  0  0
   92.1854  104.6041  -42.6007 H   0  0  0  1  0  1  0  0  0  0  0  0
   94.0253  101.7654  -44.8999 H   0  0  0  1  0  1  0  0  0  0  0  0
   93.9153  103.4825  -44.3807 H   0  0  0  1  0  1  0  0  0  0  0  0
   92.5405  103.9917  -46.3868 H   0  0  0  1  0  1  0  0  0  0  0  0
   92.6825  102.2790  -46.9091 H   0  0  0  1  0  1  0  0  0  0  0  0
   94.1449  103.3186  -46.8337 H   0  0  0  1  0  1  0  0  0  0  0  0
   92.6879   99.7452  -43.6383 H   0  0  0  1  0  1  0  0  0  0  0  0
   93.3715  100.2074  -45.2344 H   0  0  0  1  0  1  0  0  0  0  0  0
   91.6686   98.8910  -46.3962 H   0  0  0  1  0  1  0  0  0  0  0  0
   92.5004   97.8520  -45.1886 H   0  0  0  1  0  1  0  0  0  0  0  0
   90.6177   89.5536  -47.2669 H   0  0  0  1  0  1  0  0  0  0  0  0
   92.2601   90.0535  -47.7959 H   0  0  0  1  0  1  0  0  0  0  0  0
   90.7319   90.0019  -49.5355 H   0  0  0  1  0  1  0  0  0  0  0  0
  1  6  1  0  0  0  0
  1  7  1  0  0  0  0
  1 18  1  0  0  0  0
  1 25  1  0  0  0  0
  2 12  1  0  0  0  0
  2 13  1  0  0  0  0
  2 15  1  0  0  0  0
  2 30  1  0  0  0  0
  3  5  2  0  0  0  0
  3  8  1  0  0  0  0
  3 19  1  0  0  0  0
  4  6  1  0  0  0  0
  4  8  2  0  0  0  0
  4 10  1  0  0  0  0
  5  9  1  0  0  0  0
  5 27  1  0  0  0  0
  6 28  1  0  0  0  0
  6 29  1  0  0  0  0
  7 11  1  0  0  0  0
  7 31  1  0  0  0  0
  7 32  1  0  0  0  0
  8 33  1  0  0  0  0
  9 10  2  0  0  0  0
  9 24  1  0  0  0  0
 10 22  1  0  0  0  0
 11 12  1  0  0  0  0
 11 34  1  0  0  0  0
 11 35  1  0  0  0  0
 12 17  1  0  0  0  0
 12 36  1  0  0  0  0
 13 14  1  0  0  0  0
 13 37  1  0  0  0  0
 13 38  1  0  0  0  0
 14 39  1  0  0  0  0
 14 40  1  0  0  0  0
 14 41  1  0  0  0  0
 15 16  1  0  0  0  0
 15 42  1  0  0  0  0
 15 43  1  0  0  0  0
 16 44  1  0  0  0  0
 16 45  1  0  0  0  0
 16 46  1  0  0  0  0
 17 18  1  0  0  0  0
 17 47  1  0  0  0  0
 17 48  1  0  0  0  0
 18 49  1  0  0  0  0
 18 50  1  0  0  0  0
 19 20  3  0  0  0  0
 20 21  1  0  0  0  0
 21 23  1  0  0  0  0
 21 51  1  0  0  0  0
 21 52  1  0  0  0  0
 22 26  1  0  0  0  0
 23 53  1  0  0  0  0
M  END
> <ConfScore>
-0.438889 

$$$$
4agn


 53 54  0  0  0  0  0  0  0  0999 V2000
   90.4980   98.3810  -44.6910 N   0  3  0  1  0  4  0  0  0  0  0  0
   92.0509  102.3792  -44.2366 N   0  3  0  1  0  4  0  0  0  0  0  0
   91.0562   93.5609  -45.1084 C   0  0  0  1  0  3  0  0  0  0  0  0
   90.4953   95.8979  -44.7834 C   0  0  0  1  0  3  0  0  0  0  0  0
   91.5232   93.4879  -43.7859 C   0  0  0  1  0  3  0  0  0  0  0  0
   89.9050   97.1660  -45.3350 C   0  0  0  1  0  4  0  0  0  0  0  0
   89.5430   99.5450  -44.7170 C   0  0  0  1  0  4  0  0  0  0  0  0
   90.5377   94.7714  -45.6062 C   0  0  0  1  0  3  0  0  0  0  0  0
   91.4647   94.6449  -42.9838 C   0  0  0  1  0  3  0  0  0  0  0  0
   90.9542   95.8648  -43.4436 C   0  0  0  1  0  3  0  0  0  0  0  0
   90.1750  100.7310  -44.0050 C   0  0  0  1  0  4  0  0  0  0  0  0
   91.4300  101.0810  -44.8020 C   0  0  0  1  0  4  0  0  0  0  0  0
   91.1600  103.6155  -44.2171 C   0  0  0  1  0  4  0  0  0  0  0  0
   90.9684  104.1990  -45.6093 C   0  0  0  1  0  4  0  0  0  0  0  0
   93.4022  102.6729  -44.9196 C   0  0  0  1  0  4  0  0  0  0  0  0
   94.2143  101.3940  -45.0408 C   0  0  0  1  0  4  0  0  0  0  0  0
   92.4510   99.9400  -44.6950 C   0  0  0  1  0  4  0  0  0  0  0  0
   91.8210   98.7070  -45.3220 C   0  0  0  1  0  4  0  0  0  0  0  0
   91.0927   92.4396  -45.9933 C   0  0  0  1  0  2  0  0  0  0  0  0
   91.1191   91.5040  -46.7435 C   0  0  0  1  0  2  0  0  0  0  0  0
   91.1529   90.3600  -47.6565 C   0  0  0  1  0  4  0  0  0  0  0  0
   90.9110   96.9938  -42.6792 O   0  0  0  1  0  2  0  0  0  0  0  0
   90.6176   90.7250  -48.9232 O   0  0  0  1  0  2  0  0  0  0  0  0
   92.1329   94.5424  -40.9647 I   0  0  0  1  0  1  0  0  0  0  0  0
   90.6653   98.1804  -43.7174 H   0  0  0  1  0  1  0  0  0  0  0  0
   91.2529   96.8026  -41.8138 H   0  0  0  1  0  1  0  0  0  0  0  0
   91.9208   92.5607  -43.3907 H   0  0  0  1  0  1  0  0  0  0  0  0
   90.0974   97.2069  -46.4172 H   0  0  0  1  0  1  0  0  0  0  0  0
   88.8199   97.1614  -45.1549 H   0  0  0  1  0  1  0  0  0  0  0  0
   92.2547  102.1818  -43.2695 H   0  0  0  1  0  1  0  0  0  0  0  0
   88.6095   99.2654  -44.2068 H   0  0  0  1  0  1  0  0  0  0  0  0
   89.3241   99.8172  -45.7604 H   0  0  0  1  0  1  0  0  0  0  0  0
   90.1712   94.8275  -46.6251 H   0  0  0  1  0  1  0  0  0  0  0  0
   90.4413  100.4593  -42.9728 H   0  0  0  1  0  1  0  0  0  0  0  0
   89.4801  101.5838  -43.9926 H   0  0  0  1  0  1  0  0  0  0  0  0
   91.1611  101.2321  -45.8581 H   0  0  0  1  0  1  0  0  0  0  0  0
   91.6218  104.3775  -43.5730 H   0  0  0  1  0  1  0  0  0  0  0  0
   90.1761  103.3381  -43.8100 H   0  0  0  1  0  1  0  0  0  0  0  0
   90.3216  105.0855  -45.5493 H   0  0  0  1  0  1  0  0  0  0  0  0
   90.5004  103.4465  -46.2608 H   0  0  0  1  0  1  0  0  0  0  0  0
   91.9457  104.4855  -46.0246 H   0  0  0  1  0  1  0  0  0  0  0  0
   93.9637  103.4038  -44.3174 H   0  0  0  1  0  1  0  0  0  0  0  0
   93.2221  103.0849  -45.9231 H   0  0  0  1  0  1  0  0  0  0  0  0
   93.6492  100.6550  -45.6279 H   0  0  0  1  0  1  0  0  0  0  0  0
   94.4138  100.9907  -44.0377 H   0  0  0  1  0  1  0  0  0  0  0  0
   95.1672  101.6118  -45.5449 H   0  0  0  1  0  1  0  0  0  0  0  0
   92.6879   99.7452  -43.6383 H   0  0  0  1  0  1  0  0  0  0  0  0
   93.3715  100.2074  -45.2344 H   0  0  0  1  0  1  0  0  0  0  0  0
   91.6686   98.8910  -46.3962 H   0  0  0  1  0  1  0  0  0  0  0  0
   92.5004   97.8520  -45.1886 H   0  0  0  1  0  1  0  0  0  0  0  0
   90.5557   89.5395  -47.2330 H   0  0  0  1  0  1  0  0  0  0  0  0
   92.1942   90.0280  -47.7841 H   0  0  0  1  0  1  0  0  0  0  0  0
   90.6452   89.9747  -49.5052 H   0  0  0  1  0  1  0  0  0  0  0  0
  1  6  1  0  0  0  0
  1  7  1  0  0  0  0
  1 18  1  0  0  0  0
  1 25  1  0  0  0  0
  2 12  1  0  0  0  0
  2 13  1  0  0  0  0
  2 15  1  0  0  0  0
  2 30  1  0  0  0  0
  3  5  2  0  0  0  0
  3  8  1  0  0  0  0
  3 19  1  0  0  0  0
  4  6  1  0  0  0  0
  4  8  2  0  0  0  0
  4 10  1  0  0  0  0
  5  9  1  0  0  0  0
  5 27  1  0  0  0  0
  6 28  1  0  0  0  0
  6 29  1  0  0  0  0
  7 11  1  0  0  0  0
  7 31  1  0  0  0  0
  7 32  1  0  0  0  0
  8 33  1  0  0  0  0
  9 10  2  0  0  0  0
  9 24  1  0  0  0  0
 10 22  1  0  0  0  0
 11 12  1  0  0  0  0
 11 34  1  0  0  0  0
 11 35  1  0  0  0  0
 12 17  1  0  0  0  0
 12 36  1  0  0  0  0
 13 14  1  0  0  0  0
 13 37  1  0  0  0  0
 13 38  1  0  0  0  0
 14 39  1  0  0  0  0
 14 40  1  0  0  0  0
 14 41  1  0  0  0  0
 15 16  1  0  0  0  0
 15 42  1  0  0  0  0
 15 43  1  0  0  0  0
 16 44  1  0  0  0  0
 16 45  1  0  0  0  0
 16 46  1  0  0  0  0
 17 18  1  0  0  0  0
 17 47  1  0  0  0  0
 17 48  1  0  0  0  0
 18 49  1  0  0  0  0
 18 50  1  0  0  0  0
 19 20  3  0  0  0  0
 20 21  1  0  0  0  0
 21 23  1  0  0  0  0
 21 51  1  0  0  0  0
 21 52  1  0  0  0  0
 22 26  1  0  0  0  0
 23 53  1  0  0  0  0
M  END
> <ConfScore>
-0.431447 

$$$$
4agn


 53 54  0  0  0  0  0  0  0  0999 V2000
   24.4330    4.1140    6.3520 N   0  3  0  1  0  4  0  0  0  0  0  0
   25.1964    0.4472    8.5037 N   0  3  0  1  0  4  0  0  0  0  0  0
   22.0306    6.5042    2.8620 C   0  0  0  1  0  3  0  0  0  0  0  0
   23.2167    5.5840    4.7667 C   0  0  0  1  0  3  0  0  0  0  0  0
   20.8054    6.2383    3.4951 C   0  0  0  1  0  3  0  0  0  0  0  0
   24.5480    5.2730    5.4500 C   0  0  0  1  0  4  0  0  0  0  0  0
   25.4840    4.1440    7.3870 C   0  0  0  1  0  4  0  0  0  0  0  0
   23.2402    6.1775    3.5038 C   0  0  0  1  0  3  0  0  0  0  0  0
   20.8198    5.6386    4.7700 C   0  0  0  1  0  3  0  0  0  0  0  0
   22.0025    5.3017    5.4395 C   0  0  0  1  0  3  0  0  0  0  0  0
   25.3250    2.9490    8.3330 C   0  0  0  1  0  4  0  0  0  0  0  0
   25.4480    1.6410    7.5540 C   0  0  0  1  0  4  0  0  0  0  0  0
   26.0654    0.3676    9.7531 C   0  0  0  1  0  4  0  0  0  0  0  0
   25.7145   -0.8380   10.6126 C   0  0  0  1  0  4  0  0  0  0  0  0
   25.2197   -0.8805    7.7193 C   0  0  0  1  0  4  0  0  0  0  0  0
   24.6739   -2.0061    8.5823 C   0  0  0  1  0  4  0  0  0  0  0  0
   24.4130    1.6290    6.4330 C   0  0  0  1  0  4  0  0  0  0  0  0
   24.5460    2.8760    5.5510 C   0  0  0  1  0  4  0  0  0  0  0  0
   22.1058    7.0964    1.5638 C   0  0  0  1  0  2  0  0  0  0  0  0
   22.1790    7.5930    0.4744 C   0  0  0  1  0  2  0  0  0  0  0  0
   22.2648    8.1994   -0.8554 C   0  0  0  1  0  4  0  0  0  0  0  0
   22.0242    4.7044    6.6656 O   0  0  0  1  0  2  0  0  0  0  0  0
   23.6260    8.3496   -1.2412 O   0  0  0  1  0  2  0  0  0  0  0  0
   18.9729    5.2632    5.7609 I   0  0  0  1  0  1  0  0  0  0  0  0
   23.5397    4.1450    6.8182 H   0  0  0  1  0  1  0  0  0  0  0  0
   21.1341    4.5864    6.9754 H   0  0  0  1  0  1  0  0  0  0  0  0
   19.8682    6.4889    3.0125 H   0  0  0  1  0  1  0  0  0  0  0  0
   25.3022    5.0533    4.6801 H   0  0  0  1  0  1  0  0  0  0  0  0
   24.8638    6.1503    6.0336 H   0  0  0  1  0  1  0  0  0  0  0  0
   24.2539    0.5650    8.8412 H   0  0  0  1  0  1  0  0  0  0  0  0
   25.4009    5.0775    7.9629 H   0  0  0  1  0  1  0  0  0  0  0  0
   26.4716    4.0970    6.9042 H   0  0  0  1  0  1  0  0  0  0  0  0
   24.1868    6.3878    3.0189 H   0  0  0  1  0  1  0  0  0  0  0  0
   24.3363    2.9945    8.8130 H   0  0  0  1  0  1  0  0  0  0  0  0
   26.1094    2.9884    9.1033 H   0  0  0  1  0  1  0  0  0  0  0  0
   26.4576    1.5618    7.1241 H   0  0  0  1  0  1  0  0  0  0  0  0
   25.9205    1.2815   10.3469 H   0  0  0  1  0  1  0  0  0  0  0  0
   27.1199    0.2913    9.4482 H   0  0  0  1  0  1  0  0  0  0  0  0
   24.6690   -0.7612   10.9425 H   0  0  0  1  0  1  0  0  0  0  0  0
   26.3756   -0.8664   11.4913 H   0  0  0  1  0  1  0  0  0  0  0  0
   25.8471   -1.7584   10.0251 H   0  0  0  1  0  1  0  0  0  0  0  0
   26.2558   -1.1147    7.4299 H   0  0  0  1  0  1  0  0  0  0  0  0
   24.5996   -0.7820    6.8165 H   0  0  0  1  0  1  0  0  0  0  0  0
   24.6784   -2.9440    8.0074 H   0  0  0  1  0  1  0  0  0  0  0  0
   23.6449   -1.7676    8.8872 H   0  0  0  1  0  1  0  0  0  0  0  0
   25.3042   -2.1208    9.4762 H   0  0  0  1  0  1  0  0  0  0  0  0
   23.4051    1.6057    6.8739 H   0  0  0  1  0  1  0  0  0  0  0  0
   24.5636    0.7326    5.8138 H   0  0  0  1  0  1  0  0  0  0  0  0
   25.5270    2.8597    5.0527 H   0  0  0  1  0  1  0  0  0  0  0  0
   23.7488    2.8655    4.7929 H   0  0  0  1  0  1  0  0  0  0  0  0
   21.7819    9.1872   -0.8361 H   0  0  0  1  0  1  0  0  0  0  0  0
   21.7502    7.5536   -1.5827 H   0  0  0  1  0  1  0  0  0  0  0  0
   23.6674    8.7437   -2.1045 H   0  0  0  1  0  1  0  0  0  0  0  0
  1  6  1  0  0  0  0
  1  7  1  0  0  0  0
  1 18  1  0  0  0  0
  1 25  1  0  0  0  0
  2 12  1  0  0  0  0
  2 13  1  0  0  0  0
  2 15  1  0  0  0  0
  2 30  1  0  0  0  0
  3  5  2  0  0  0  0
  3  8  1  0  0  0  0
  3 19  1  0  0  0  0
  4  6  1  0  0  0  0
  4  8  2  0  0  0  0
  4 10  1  0  0  0  0
  5  9  1  0  0  0  0
  5 27  1  0  0  0  0
  6 28  1  0  0  0  0
  6 29  1  0  0  0  0
  7 11  1  0  0  0  0
  7 31  1  0  0  0  0
  7 32  1  0  0  0  0
  8 33  1  0  0  0  0
  9 10  2  0  0  0  0
  9 24  1  0  0  0  0
 10 22  1  0  0  0  0
 11 12  1  0  0  0  0
 11 34  1  0  0  0  0
 11 35  1  0  0  0  0
 12 17  1  0  0  0  0
 12 36  1  0  0  0  0
 13 14  1  0  0  0  0
 13 37  1  0  0  0  0
 13 38  1  0  0  0  0
 14 39  1  0  0  0  0
 14 40  1  0  0  0  0
 14 41  1  0  0  0  0
 15 16  1  0  0  0  0
 15 42  1  0  0  0  0
 15 43  1  0  0  0  0
 16 44  1  0  0  0  0
 16 45  1  0  0  0  0
 16 46  1  0  0  0  0
 17 18  1  0  0  0  0
 17 47  1  0  0  0  0
 17 48  1  0  0  0  0
 18 49  1  0  0  0  0
 18 50  1  0  0  0  0
 19 20  3  0  0  0  0
 20 21  1  0  0  0  0
 21 23  1  0  0  0  0
 21 51  1  0  0  0  0
 21 52  1  0  0  0  0
 22 26  1  0  0  0  0
 23 53  1  0  0  0  0
M  END
> <ConfScore>
-0.428812 

$$$$
4agn


 53 54  0  0  0  0  0  0  0  0999 V2000
    2.5209    6.6299    6.3322 N   0  3  0  1  0  4  0  0  0  0  0  0
    1.3416    8.7866    9.1336 N   0  3  0  1  0  4  0  0  0  0  0  0
    1.5865    2.0713    4.5223 C   0  0  0  1  0  3  0  0  0  0  0  0
    2.3233    4.2450    5.3056 C   0  0  0  1  0  3  0  0  0  0  0  0
    1.6070    2.5400    3.1985 C   0  0  0  1  0  3  0  0  0  0  0  0
    2.7438    5.1386    6.4710 C   0  0  0  1  0  4  0  0  0  0  0  0
    1.0783    6.9623    6.6507 C   0  0  0  1  0  4  0  0  0  0  0  0
    1.9495    2.9284    5.5784 C   0  0  0  1  0  3  0  0  0  0  0  0
    1.9899    3.8750    2.9603 C   0  0  0  1  0  3  0  0  0  0  0  0
    2.3591    4.7553    3.9846 C   0  0  0  1  0  3  0  0  0  0  0  0
    0.8308    8.4545    6.7078 C   0  0  0  1  0  4  0  0  0  0  0  0
    1.7396    9.1749    7.6909 C   0  0  0  1  0  4  0  0  0  0  0  0
    2.2398    9.2948   10.2549 C   0  0  0  1  0  4  0  0  0  0  0  0
    1.7065    8.9108   11.6273 C   0  0  0  1  0  4  0  0  0  0  0  0
    1.1184    7.2643    9.2404 C   0  0  0  1  0  4  0  0  0  0  0  0
    0.7519    6.8895   10.6670 C   0  0  0  1  0  4  0  0  0  0  0  0
    3.1859    8.7850    7.4475 C   0  0  0  1  0  4  0  0  0  0  0  0
    3.3964    7.2849    7.3752 C   0  0  0  1  0  4  0  0  0  0  0  0
    1.1969    0.7369    4.8531 C   0  0  0  1  0  2  0  0  0  0  0  0
    0.8713   -0.3812    5.1407 C   0  0  0  1  0  2  0  0  0  0  0  0
    0.4735   -1.7466    5.4881 C   0  0  0  1  0  4  0  0  0  0  0  0
    2.7133    6.0539    3.7637 O   0  0  0  1  0  2  0  0  0  0  0  0
    0.5487   -1.9382    6.8959 O   0  0  0  1  0  2  0  0  0  0  0  0
    2.0635    4.5914    0.9566 I   0  0  0  1  0  1  0  0  0  0  0  0
    2.7338    6.9425    5.3977 H   0  0  0  1  0  1  0  0  0  0  0  0
    2.6867    6.2345    2.8315 H   0  0  0  1  0  1  0  0  0  0  0  0
    1.3334    1.8884    2.3773 H   0  0  0  1  0  1  0  0  0  0  0  0
    2.1862    4.8047    7.3583 H   0  0  0  1  0  1  0  0  0  0  0  0
    3.8203    4.9814    6.6332 H   0  0  0  1  0  1  0  0  0  0  0  0
    0.4455    9.2202    9.2921 H   0  0  0  1  0  1  0  0  0  0  0  0
    0.8217    6.5239    7.6263 H   0  0  0  1  0  1  0  0  0  0  0  0
    0.4348    6.5267    5.8716 H   0  0  0  1  0  1  0  0  0  0  0  0
    1.9400    2.5660    6.6003 H   0  0  0  1  0  1  0  0  0  0  0  0
   -0.2137    8.6243    7.0083 H   0  0  0  1  0  1  0  0  0  0  0  0
    0.9974    8.8751    5.7050 H   0  0  0  1  0  1  0  0  0  0  0  0
    1.6289   10.2616    7.5592 H   0  0  0  1  0  1  0  0  0  0  0  0
    2.3029   10.3906   10.1921 H   0  0  0  1  0  1  0  0  0  0  0  0
    3.2435    8.8615   10.1302 H   0  0  0  1  0  1  0  0  0  0  0  0
    0.7129    9.3575   11.7726 H   0  0  0  1  0  1  0  0  0  0  0  0
    2.3924    9.2808   12.4036 H   0  0  0  1  0  1  0  0  0  0  0  0
    1.6303    7.8159   11.6981 H   0  0  0  1  0  1  0  0  0  0  0  0
    2.0427    6.7395    8.9534 H   0  0  0  1  0  1  0  0  0  0  0  0
    0.3025    6.9667    8.5659 H   0  0  0  1  0  1  0  0  0  0  0  0
   -0.1722    7.4112   10.9571 H   0  0  0  1  0  1  0  0  0  0  0  0
    1.5670    7.1835   11.3436 H   0  0  0  1  0  1  0  0  0  0  0  0
    0.5953    5.8029   10.7314 H   0  0  0  1  0  1  0  0  0  0  0  0
    3.7988    9.1848    8.2693 H   0  0  0  1  0  1  0  0  0  0  0  0
    3.5123    9.2299    6.4961 H   0  0  0  1  0  1  0  0  0  0  0  0
    4.4501    7.0876    7.1265 H   0  0  0  1  0  1  0  0  0  0  0  0
    3.1629    6.8478    8.3574 H   0  0  0  1  0  1  0  0  0  0  0  0
    1.1457   -2.4591    4.9885 H   0  0  0  1  0  1  0  0  0  0  0  0
   -0.5600   -1.9201    5.1525 H   0  0  0  1  0  1  0  0  0  0  0  0
    0.2885   -2.8270    7.1074 H   0  0  0  1  0  1  0  0  0  0  0  0
  1  6  1  0  0  0  0
  1  7  1  0  0  0  0
  1 18  1  0  0  0  0
  1 25  1  0  0  0  0
  2 12  1  0  0  0  0
  2 13  1  0  0  0  0
  2 15  1  0  0  0  0
  2 30  1  0  0  0  0
  3  5  2  0  0  0  0
  3  8  1  0  0  0  0
  3 19  1  0  0  0  0
  4  6  1  0  0  0  0
  4  8  2  0  0  0  0
  4 10  1  0  0  0  0
  5  9  1  0  0  0  0
  5 27  1  0  0  0  0
  6 28  1  0  0  0  0
  6 29  1  0  0  0  0
  7 11  1  0  0  0  0
  7 31  1  0  0  0  0
  7 32  1  0  0  0  0
  8 33  1  0  0  0  0
  9 10  2  0  0  0  0
  9 24  1  0  0  0  0
 10 22  1  0  0  0  0
 11 12  1  0  0  0  0
 11 34  1  0  0  0  0
 11 35  1  0  0  0  0
 12 17  1  0  0  0  0
 12 36  1  0  0  0  0
 13 14  1  0  0  0  0
 13 37  1  0  0  0  0
 13 38  1  0  0  0  0
 14 39  1  0  0  0  0
 14 40  1  0  0  0  0
 14 41  1  0  0  0  0
 15 16  1  0  0  0  0
 15 42  1  0  0  0  0
 15 43  1  0  0  0  0
 16 44  1  0  0  0  0
 16 45  1  0  0  0  0
 16 46  1  0  0  0  0
 17 18  1  0  0  0  0
 17 47  1  0  0  0  0
 17 48  1  0  0  0  0
 18 49  1  0  0  0  0
 18 50  1  0  0  0  0
 19 20  3  0  0  0  0
 20 21  1  0  0  0  0
 21 23  1  0  0  0  0
 21 51  1  0  0  0  0
 21 52  1  0  0  0  0
 22 26  1  0  0  0  0
 23 53  1  0  0  0  0
M  END
> <ConfScore>
-0.427185 

$$$$
4agn


 53 54  0  0  0  0  0  0  0  0999 V2000
   90.4980   98.3810  -44.6910 N   0  3  0  1  0  4  0  0  0  0  0  0
   92.0509  102.3792  -44.2366 N   0  3  0  1  0  4  0  0  0  0  0  0
   91.0477   93.5495  -45.0827 C   0  0  0  1  0  3  0  0  0  0  0  0
   90.4948   95.8988  -44.7838 C   0  0  0  1  0  3  0  0  0  0  0  0
   91.4685   93.4573  -43.7498 C   0  0  0  1  0  3  0  0  0  0  0  0
   89.9050   97.1660  -45.3350 C   0  0  0  1  0  4  0  0  0  0  0  0
   89.5430   99.5450  -44.7170 C   0  0  0  1  0  4  0  0  0  0  0  0
   90.5627   94.7613  -45.5982 C   0  0  0  1  0  3  0  0  0  0  0  0
   91.3956   94.6098  -42.9505 C   0  0  0  1  0  3  0  0  0  0  0  0
   90.9131   95.8428  -43.4281 C   0  0  0  1  0  3  0  0  0  0  0  0
   90.1750  100.7310  -44.0050 C   0  0  0  1  0  4  0  0  0  0  0  0
   91.4300  101.0810  -44.8020 C   0  0  0  1  0  4  0  0  0  0  0  0
   93.2367  102.9616  -44.9963 C   0  0  0  1  0  4  0  0  0  0  0  0
   92.9429  103.1065  -46.4823 C   0  0  0  1  0  4  0  0  0  0  0  0
   92.3718  102.2152  -42.7371 C   0  0  0  1  0  4  0  0  0  0  0  0
   92.7210  103.5630  -42.1277 C   0  0  0  1  0  4  0  0  0  0  0  0
   92.4510   99.9400  -44.6950 C   0  0  0  1  0  4  0  0  0  0  0  0
   91.8210   98.7070  -45.3220 C   0  0  0  1  0  4  0  0  0  0  0  0
   91.1128   92.3979  -45.9261 C   0  0  0  1  0  2  0  0  0  0  0  0
   91.1637   91.4366  -46.6418 C   0  0  0  1  0  2  0  0  0  0  0  0
   91.2272   90.2614  -47.5125 C   0  0  0  1  0  4  0  0  0  0  0  0
   90.8497   96.9403  -42.6206 O   0  0  0  1  0  2  0  0  0  0  0  0
   90.7519   90.5864  -48.8137 O   0  0  0  1  0  2  0  0  0  0  0  0
   92.0438   94.4865  -40.9260 I   0  0  0  1  0  1  0  0  0  0  0  0
   90.6653   98.1804  -43.7174 H   0  0  0  1  0  1  0  0  0  0  0  0
   90.5708   96.6774  -41.7515 H   0  0  0  1  0  1  0  0  0  0  0  0
   91.8401   92.5228  -43.3466 H   0  0  0  1  0  1  0  0  0  0  0  0
   90.0974   97.2069  -46.4172 H   0  0  0  1  0  1  0  0  0  0  0  0
   88.8199   97.1614  -45.1549 H   0  0  0  1  0  1  0  0  0  0  0  0
   91.3249  103.0755  -44.3006 H   0  0  0  1  0  1  0  0  0  0  0  0
   88.6095   99.2654  -44.2068 H   0  0  0  1  0  1  0  0  0  0  0  0
   89.3241   99.8172  -45.7604 H   0  0  0  1  0  1  0  0  0  0  0  0
   90.2392   94.8172  -46.6315 H   0  0  0  1  0  1  0  0  0  0  0  0
   90.4413  100.4593  -42.9728 H   0  0  0  1  0  1  0  0  0  0  0  0
   89.4801  101.5838  -43.9926 H   0  0  0  1  0  1  0  0  0  0  0  0
   91.1611  101.2321  -45.8581 H   0  0  0  1  0  1  0  0  0  0  0  0
   94.1030  102.2969  -44.8686 H   0  0  0  1  0  1  0  0  0  0  0  0
   93.4711  103.9539  -44.5825 H   0  0  0  1  0  1  0  0  0  0  0  0
   92.7295  102.1176  -46.9118 H   0  0  0  1  0  1  0  0  0  0  0  0
   93.8159  103.5455  -46.9873 H   0  0  0  1  0  1  0  0  0  0  0  0
   92.0713  103.7627  -46.6216 H   0  0  0  1  0  1  0  0  0  0  0  0
   93.2268  101.5315  -42.6200 H   0  0  0  1  0  1  0  0  0  0  0  0
   91.4953  101.7991  -42.2196 H   0  0  0  1  0  1  0  0  0  0  0  0
   92.9305  103.4372  -41.0551 H   0  0  0  1  0  1  0  0  0  0  0  0
   91.8756  104.2536  -42.2579 H   0  0  0  1  0  1  0  0  0  0  0  0
   93.6099  103.9724  -42.6294 H   0  0  0  1  0  1  0  0  0  0  0  0
   92.6879   99.7452  -43.6383 H   0  0  0  1  0  1  0  0  0  0  0  0
   93.3715  100.2074  -45.2344 H   0  0  0  1  0  1  0  0  0  0  0  0
   91.6686   98.8910  -46.3962 H   0  0  0  1  0  1  0  0  0  0  0  0
   92.5004   97.8520  -45.1886 H   0  0  0  1  0  1  0  0  0  0  0  0
   90.6041   89.4608  -47.0882 H   0  0  0  1  0  1  0  0  0  0  0  0
   92.2699   89.9171  -47.5821 H   0  0  0  1  0  1  0  0  0  0  0  0
   90.7983   89.8162  -49.3677 H   0  0  0  1  0  1  0  0  0  0  0  0
  1  6  1  0  0  0  0
  1  7  1  0  0  0  0
  1 18  1  0  0  0  0
  1 25  1  0  0  0  0
  2 12  1  0  0  0  0
  2 13  1  0  0  0  0
  2 15  1  0  0  0  0
  2 30  1  0  0  0  0
  3  5  2  0  0  0  0
  3  8  1  0  0  0  0
  3 19  1  0  0  0  0
  4  6  1  0  0  0  0
  4  8  2  0  0  0  0
  4 10  1  0  0  0  0
  5  9  1  0  0  0  0
  5 27  1  0  0  0  0
  6 28  1  0  0  0  0
  6 29  1  0  0  0  0
  7 11  1  0  0  0  0
  7 31  1  0  0  0  0
  7 32  1  0  0  0  0
  8 33  1  0  0  0  0
  9 10  2  0  0  0  0
  9 24  1  0  0  0  0
 10 22  1  0  0  0  0
 11 12  1  0  0  0  0
 11 34  1  0  0  0  0
 11 35  1  0  0  0  0
 12 17  1  0  0  0  0
 12 36  1  0  0  0  0
 13 14  1  0  0  0  0
 13 37  1  0  0  0  0
 13 38  1  0  0  0  0
 14 39  1  0  0  0  0
 14 40  1  0  0  0  0
 14 41  1  0  0  0  0
 15 16  1  0  0  0  0
 15 42  1  0  0  0  0
 15 43  1  0  0  0  0
 16 44  1  0  0  0  0
 16 45  1  0  0  0  0
 16 46  1  0  0  0  0
 17 18  1  0  0  0  0
 17 47  1  0  0  0  0
 17 48  1  0  0  0  0
 18 49  1  0  0  0  0
 18 50  1  0  0  0  0
 19 20  3  0  0  0  0
 20 21  1  0  0  0  0
 21 23  1  0  0  0  0
 21 51  1  0  0  0  0
 21 52  1  0  0  0  0
 22 26  1  0  0  0  0
 23 53  1  0  0  0  0
M  END
> <ConfScore>
-0.425479 

$$$$
4agn


 53 54  0  0  0  0  0  0  0  0999 V2000
   24.4330    4.1140    6.3520 N   0  3  0  1  0  4  0  0  0  0  0  0
   25.1964    0.4472    8.5037 N   0  3  0  1  0  4  0  0  0  0  0  0
   21.1864    5.9681    3.7736 C   0  0  0  1  0  3  0  0  0  0  0  0
   23.4260    5.2833    4.4035 C   0  0  0  1  0  3  0  0  0  0  0  0
   21.3168    5.2792    2.5566 C   0  0  0  1  0  3  0  0  0  0  0  0
   24.5480    5.2730    5.4500 C   0  0  0  1  0  4  0  0  0  0  0  0
   25.4840    4.1440    7.3870 C   0  0  0  1  0  4  0  0  0  0  0  0
   22.2458    5.9662    4.7007 C   0  0  0  1  0  3  0  0  0  0  0  0
   22.5225    4.6004    2.2903 C   0  0  0  1  0  3  0  0  0  0  0  0
   23.5961    4.5749    3.1886 C   0  0  0  1  0  3  0  0  0  0  0  0
   25.3250    2.9490    8.3330 C   0  0  0  1  0  4  0  0  0  0  0  0
   25.4480    1.6410    7.5540 C   0  0  0  1  0  4  0  0  0  0  0  0
   23.8258    0.3724    9.1657 C   0  0  0  1  0  4  0  0  0  0  0  0
   22.7059    0.7061    8.1911 C   0  0  0  1  0  4  0  0  0  0  0  0
   26.3286    0.3385    9.5453 C   0  0  0  1  0  4  0  0  0  0  0  0
   26.3082    1.5474   10.4662 C   0  0  0  1  0  4  0  0  0  0  0  0
   24.4130    1.6290    6.4330 C   0  0  0  1  0  4  0  0  0  0  0  0
   24.5460    2.8760    5.5510 C   0  0  0  1  0  4  0  0  0  0  0  0
   20.0042    6.6938    4.1165 C   0  0  0  1  0  2  0  0  0  0  0  0
   19.0160    7.3056    4.4133 C   0  0  0  1  0  2  0  0  0  0  0  0
   17.8085    8.0514    4.7723 C   0  0  0  1  0  4  0  0  0  0  0  0
   24.7730    3.9355    2.9302 O   0  0  0  1  0  2  0  0  0  0  0  0
   17.9597    8.6444    6.0568 O   0  0  0  1  0  2  0  0  0  0  0  0
   22.7234    3.5191    0.4671 I   0  0  0  1  0  1  0  0  0  0  0  0
   23.5397    4.1450    6.8182 H   0  0  0  1  0  1  0  0  0  0  0  0
   24.7232    3.5129    2.0809 H   0  0  0  1  0  1  0  0  0  0  0  0
   20.5067    5.2704    1.8371 H   0  0  0  1  0  1  0  0  0  0  0  0
   25.5182    5.2292    4.9336 H   0  0  0  1  0  1  0  0  0  0  0  0
   24.4902    6.1963    6.0451 H   0  0  0  1  0  1  0  0  0  0  0  0
   25.2585   -0.3757    7.9249 H   0  0  0  1  0  1  0  0  0  0  0  0
   25.4009    5.0775    7.9629 H   0  0  0  1  0  1  0  0  0  0  0  0
   26.4716    4.0970    6.9042 H   0  0  0  1  0  1  0  0  0  0  0  0
   22.1441    6.4925    5.6431 H   0  0  0  1  0  1  0  0  0  0  0  0
   24.3363    2.9945    8.8130 H   0  0  0  1  0  1  0  0  0  0  0  0
   26.1094    2.9884    9.1033 H   0  0  0  1  0  1  0  0  0  0  0  0
   26.4576    1.5618    7.1241 H   0  0  0  1  0  1  0  0  0  0  0  0
   23.7941    1.0863   10.0013 H   0  0  0  1  0  1  0  0  0  0  0  0
   23.6711   -0.6476    9.5483 H   0  0  0  1  0  1  0  0  0  0  0  0
   21.7371    0.6230    8.7035 H   0  0  0  1  0  1  0  0  0  0  0  0
   22.7351    0.0040    7.3450 H   0  0  0  1  0  1  0  0  0  0  0  0
   22.8371    1.7329    7.8193 H   0  0  0  1  0  1  0  0  0  0  0  0
   27.2984    0.2941    9.0261 H   0  0  0  1  0  1  0  0  0  0  0  0
   26.1893   -0.5746   10.1420 H   0  0  0  1  0  1  0  0  0  0  0  0
   25.3409    1.5945   10.9879 H   0  0  0  1  0  1  0  0  0  0  0  0
   26.4499    2.4619    9.8727 H   0  0  0  1  0  1  0  0  0  0  0  0
   27.1190    1.4594   11.2040 H   0  0  0  1  0  1  0  0  0  0  0  0
   23.4051    1.6057    6.8739 H   0  0  0  1  0  1  0  0  0  0  0  0
   24.5636    0.7326    5.8138 H   0  0  0  1  0  1  0  0  0  0  0  0
   25.5270    2.8597    5.0527 H   0  0  0  1  0  1  0  0  0  0  0  0
   23.7488    2.8655    4.7929 H   0  0  0  1  0  1  0  0  0  0  0  0
   16.9491    7.3654    4.7882 H   0  0  0  1  0  1  0  0  0  0  0  0
   17.6340    8.8409    4.0259 H   0  0  0  1  0  1  0  0  0  0  0  0
   17.1702    9.1244    6.2773 H   0  0  0  1  0  1  0  0  0  0  0  0
  1  6  1  0  0  0  0
  1  7  1  0  0  0  0
  1 18  1  0  0  0  0
  1 25  1  0  0  0  0
  2 12  1  0  0  0  0
  2 13  1  0  0  0  0
  2 15  1  0  0  0  0
  2 30  1  0  0  0  0
  3  5  2  0  0  0  0
  3  8  1  0  0  0  0
  3 19  1  0  0  0  0
  4  6  1  0  0  0  0
  4  8  2  0  0  0  0
  4 10  1  0  0  0  0
  5  9  1  0  0  0  0
  5 27  1  0  0  0  0
  6 28  1  0  0  0  0
  6 29  1  0  0  0  0
  7 11  1  0  0  0  0
  7 31  1  0  0  0  0
  7 32  1  0  0  0  0
  8 33  1  0  0  0  0
  9 10  2  0  0  0  0
  9 24  1  0  0  0  0
 10 22  1  0  0  0  0
 11 12  1  0  0  0  0
 11 34  1  0  0  0  0
 11 35  1  0  0  0  0
 12 17  1  0  0  0  0
 12 36  1  0  0  0  0
 13 14  1  0  0  0  0
 13 37  1  0  0  0  0
 13 38  1  0  0  0  0
 14 39  1  0  0  0  0
 14 40  1  0  0  0  0
 14 41  1  0  0  0  0
 15 16  1  0  0  0  0
 15 42  1  0  0  0  0
 15 43  1  0  0  0  0
 16 44  1  0  0  0  0
 16 45  1  0  0  0  0
 16 46  1  0  0  0  0
 17 18  1  0  0  0  0
 17 47  1  0  0  0  0
 17 48  1  0  0  0  0
 18 49  1  0  0  0  0
 18 50  1  0  0  0  0
 19 20  3  0  0  0  0
 20 21  1  0  0  0  0
 21 23  1  0  0  0  0
 21 51  1  0  0  0  0
 21 52  1  0  0  0  0
 22 26  1  0  0  0  0
 23 53  1  0  0  0  0
M  END
> <ConfScore>
-0.41864 

$$$$
4agn


 53 54  0  0  0  0  0  0  0  0999 V2000
   24.4330    4.1140    6.3520 N   0  3  0  1  0  4  0  0  0  0  0  0
   25.1964    0.4472    8.5037 N   0  3  0  1  0  4  0  0  0  0  0  0
   21.0528    5.3667    3.9108 C   0  0  0  1  0  3  0  0  0  0  0  0
   23.4260    5.2833    4.4035 C   0  0  0  1  0  3  0  0  0  0  0  0
   21.3317    5.2394    2.5402 C   0  0  0  1  0  3  0  0  0  0  0  0
   24.5480    5.2730    5.4500 C   0  0  0  1  0  4  0  0  0  0  0  0
   25.4840    4.1440    7.3870 C   0  0  0  1  0  4  0  0  0  0  0  0
   22.1060    5.3855    4.8448 C   0  0  0  1  0  3  0  0  0  0  0  0
   22.6761    5.1382    2.1308 C   0  0  0  1  0  3  0  0  0  0  0  0
   23.7489    5.1512    3.0305 C   0  0  0  1  0  3  0  0  0  0  0  0
   25.3250    2.9490    8.3330 C   0  0  0  1  0  4  0  0  0  0  0  0
   25.4480    1.6410    7.5540 C   0  0  0  1  0  4  0  0  0  0  0  0
   25.2751   -0.9464    7.8920 C   0  0  0  1  0  4  0  0  0  0  0  0
   26.4519   -1.0812    6.9369 C   0  0  0  1  0  4  0  0  0  0  0  0
   23.8790    0.6445    9.2810 C   0  0  0  1  0  4  0  0  0  0  0  0
   22.6982    0.6049    8.3250 C   0  0  0  1  0  4  0  0  0  0  0  0
   24.4130    1.6290    6.4330 C   0  0  0  1  0  4  0  0  0  0  0  0
   24.5460    2.8760    5.5510 C   0  0  0  1  0  4  0  0  0  0  0  0
   19.7195    5.4894    4.4099 C   0  0  0  1  0  2  0  0  0  0  0  0
   18.6039    5.5930    4.8382 C   0  0  0  1  0  2  0  0  0  0  0  0
   17.2410    5.7192    5.3577 C   0  0  0  1  0  4  0  0  0  0  0  0
   25.0536    5.0722    2.6406 O   0  0  0  1  0  2  0  0  0  0  0  0
   17.2631    5.8317    6.7759 O   0  0  0  1  0  2  0  0  0  0  0  0
   23.1155    4.9061    0.0603 I   0  0  0  1  0  1  0  0  0  0  0  0
   23.5397    4.1450    6.8182 H   0  0  0  1  0  1  0  0  0  0  0  0
   25.0964    4.9877    1.6954 H   0  0  0  1  0  1  0  0  0  0  0  0
   20.5292    5.2198    1.8125 H   0  0  0  1  0  1  0  0  0  0  0  0
   25.5182    5.2292    4.9336 H   0  0  0  1  0  1  0  0  0  0  0  0
   24.4902    6.1963    6.0451 H   0  0  0  1  0  1  0  0  0  0  0  0
   25.9394    0.4824    9.1840 H   0  0  0  1  0  1  0  0  0  0  0  0
   25.4009    5.0775    7.9629 H   0  0  0  1  0  1  0  0  0  0  0  0
   26.4716    4.0970    6.9042 H   0  0  0  1  0  1  0  0  0  0  0  0
   21.8918    5.4776    5.9037 H   0  0  0  1  0  1  0  0  0  0  0  0
   24.3363    2.9945    8.8130 H   0  0  0  1  0  1  0  0  0  0  0  0
   26.1094    2.9884    9.1033 H   0  0  0  1  0  1  0  0  0  0  0  0
   26.4576    1.5618    7.1241 H   0  0  0  1  0  1  0  0  0  0  0  0
   24.3452   -1.1466    7.3406 H   0  0  0  1  0  1  0  0  0  0  0  0
   25.3882   -1.6837    8.7009 H   0  0  0  1  0  1  0  0  0  0  0  0
   26.4815   -2.1032    6.5337 H   0  0  0  1  0  1  0  0  0  0  0  0
   27.3874   -0.8722    7.4763 H   0  0  0  1  0  1  0  0  0  0  0  0
   26.3378   -0.3642    6.1107 H   0  0  0  1  0  1  0  0  0  0  0  0
   23.8998    1.6196    9.7918 H   0  0  0  1  0  1  0  0  0  0  0  0
   23.7705   -0.1577   10.0252 H   0  0  0  1  0  1  0  0  0  0  0  0
   22.6732   -0.3687    7.8134 H   0  0  0  1  0  1  0  0  0  0  0  0
   22.8024    1.4077    7.5811 H   0  0  0  1  0  1  0  0  0  0  0  0
   21.7651    0.7466    8.8895 H   0  0  0  1  0  1  0  0  0  0  0  0
   23.4051    1.6057    6.8739 H   0  0  0  1  0  1  0  0  0  0  0  0
   24.5636    0.7326    5.8138 H   0  0  0  1  0  1  0  0  0  0  0  0
   25.5270    2.8597    5.0527 H   0  0  0  1  0  1  0  0  0  0  0  0
   23.7488    2.8655    4.7929 H   0  0  0  1  0  1  0  0  0  0  0  0
   16.6600    4.8300    5.0732 H   0  0  0  1  0  1  0  0  0  0  0  0
   16.7709    6.6172    4.9293 H   0  0  0  1  0  1  0  0  0  0  0  0
   16.3737    5.9127    7.0996 H   0  0  0  1  0  1  0  0  0  0  0  0
  1  6  1  0  0  0  0
  1  7  1  0  0  0  0
  1 18  1  0  0  0  0
  1 25  1  0  0  0  0
  2 12  1  0  0  0  0
  2 13  1  0  0  0  0
  2 15  1  0  0  0  0
  2 30  1  0  0  0  0
  3  5  2  0  0  0  0
  3  8  1  0  0  0  0
  3 19  1  0  0  0  0
  4  6  1  0  0  0  0
  4  8  2  0  0  0  0
  4 10  1  0  0  0  0
  5  9  1  0  0  0  0
  5 27  1  0  0  0  0
  6 28  1  0  0  0  0
  6 29  1  0  0  0  0
  7 11  1  0  0  0  0
  7 31  1  0  0  0  0
  7 32  1  0  0  0  0
  8 33  1  0  0  0  0
  9 10  2  0  0  0  0
  9 24  1  0  0  0  0
 10 22  1  0  0  0  0
 11 12  1  0  0  0  0
 11 34  1  0  0  0  0
 11 35  1  0  0  0  0
 12 17  1  0  0  0  0
 12 36  1  0  0  0  0
 13 14  1  0  0  0  0
 13 37  1  0  0  0  0
 13 38  1  0  0  0  0
 14 39  1  0  0  0  0
 14 40  1  0  0  0  0
 14 41  1  0  0  0  0
 15 16  1  0  0  0  0
 15 42  1  0  0  0  0
 15 43  1  0  0  0  0
 16 44  1  0  0  0  0
 16 45  1  0  0  0  0
 16 46  1  0  0  0  0
 17 18  1  0  0  0  0
 17 47  1  0  0  0  0
 17 48  1  0  0  0  0
 18 49  1  0  0  0  0
 18 50  1  0  0  0  0
 19 20  3  0  0  0  0
 20 21  1  0  0  0  0
 21 23  1  0  0  0  0
 21 51  1  0  0  0  0
 21 52  1  0  0  0  0
 22 26  1  0  0  0  0
 23 53  1  0  0  0  0
M  END
> <ConfScore>
-0.403152 

$$$$
4agn


 53 54  0  0  0  0  0  0  0  0999 V2000
    5.4320    2.2550   28.3390 N   0  3  0  1  0  4  0  0  0  0  0  0
    4.8087   -1.3149   27.7656 N   0  3  0  1  0  4  0  0  0  0  0  0
    8.5794    5.9884   27.9655 C   0  0  0  1  0  3  0  0  0  0  0  0
    6.8799    4.3500   28.3599 C   0  0  0  1  0  3  0  0  0  0  0  0
    7.6880    6.7182   27.2104 C   0  0  0  1  0  3  0  0  0  0  0  0
    6.4640    3.0610   28.9950 C   0  0  0  1  0  4  0  0  0  0  0  0
    6.0520    1.4770   27.2550 C   0  0  0  1  0  4  0  0  0  0  0  0
    8.1699    4.8170   28.5532 C   0  0  0  1  0  3  0  0  0  0  0  0
    6.3835    6.2718   27.0379 C   0  0  0  1  0  3  0  0  0  0  0  0
    5.9752    5.0884   27.6156 C   0  0  0  1  0  3  0  0  0  0  0  0
    4.9600    0.8100   26.4490 C   0  0  0  1  0  4  0  0  0  0  0  0
    4.0370   -0.0500   27.3240 C   0  0  0  1  0  4  0  0  0  0  0  0
    4.0484   -2.3198   28.6226 C   0  0  0  1  0  4  0  0  0  0  0  0
    4.9032   -3.5293   28.9719 C   0  0  0  1  0  4  0  0  0  0  0  0
    6.1526   -0.9275   28.4155 C   0  0  0  1  0  4  0  0  0  0  0  0
    6.8924   -2.1756   28.8680 C   0  0  0  1  0  4  0  0  0  0  0  0
    3.5580    0.6920   28.5700 C   0  0  0  1  0  4  0  0  0  0  0  0
    4.7240    1.3610   29.2750 C   0  0  0  1  0  4  0  0  0  0  0  0
    9.9217    6.4475   28.1362 C   0  0  0  1  0  2  0  0  0  0  0  0
   11.0506    6.8248   28.2852 C   0  0  0  1  0  2  0  0  0  0  0  0
   12.4276    7.2881   28.4650 C   0  0  0  1  0  4  0  0  0  0  0  0
    4.6937    4.6495   27.4555 O   0  0  0  1  0  2  0  0  0  0  0  0
   13.1527    6.3733   29.2785 O   0  0  0  1  0  2  0  0  0  0  0  0
    5.0126    7.4173   25.8794 I   0  0  0  1  0  1  0  0  0  0  0  0
    4.7370    2.8836   27.9673 H   0  0  0  1  0  1  0  0  0  0  0  0
    4.0906    5.3193   27.7551 H   0  0  0  1  0  1  0  0  0  0  0  0
    8.0057    7.6454   26.7484 H   0  0  0  1  0  1  0  0  0  0  0  0
    7.3639    2.4334   29.0730 H   0  0  0  1  0  1  0  0  0  0  0  0
    6.0952    3.3010   30.0031 H   0  0  0  1  0  1  0  0  0  0  0  0
    5.0322   -1.8055   26.9140 H   0  0  0  1  0  1  0  0  0  0  0  0
    6.7161    0.7114   27.6825 H   0  0  0  1  0  1  0  0  0  0  0  0
    6.6345    2.1472   26.6052 H   0  0  0  1  0  1  0  0  0  0  0  0
    8.8599    4.2543   29.1719 H   0  0  0  1  0  1  0  0  0  0  0  0
    5.4247    0.1677   25.6863 H   0  0  0  1  0  1  0  0  0  0  0  0
    4.3577    1.5878   25.9566 H   0  0  0  1  0  1  0  0  0  0  0  0
    3.1596   -0.3441   26.7290 H   0  0  0  1  0  1  0  0  0  0  0  0
    3.1607   -2.6598   28.0701 H   0  0  0  1  0  1  0  0  0  0  0  0
    3.7341   -1.8263   29.5544 H   0  0  0  1  0  1  0  0  0  0  0  0
    5.7902   -3.2017   29.5321 H   0  0  0  1  0  1  0  0  0  0  0  0
    5.2188   -4.0343   28.0471 H   0  0  0  1  0  1  0  0  0  0  0  0
    4.3172   -4.2269   29.5881 H   0  0  0  1  0  1  0  0  0  0  0  0
    5.9633   -0.2818   29.2870 H   0  0  0  1  0  1  0  0  0  0  0  0
    6.7691   -0.3854   27.6839 H   0  0  0  1  0  1  0  0  0  0  0  0
    7.8566   -1.8890   29.3135 H   0  0  0  1  0  1  0  0  0  0  0  0
    7.0682   -2.8307   28.0028 H   0  0  0  1  0  1  0  0  0  0  0  0
    6.2873   -2.7092   29.6154 H   0  0  0  1  0  1  0  0  0  0  0  0
    3.0831   -0.0243   29.2570 H   0  0  0  1  0  1  0  0  0  0  0  0
    2.8262    1.4584   28.2752 H   0  0  0  1  0  1  0  0  0  0  0  0
    4.3471    1.9485   30.1257 H   0  0  0  1  0  1  0  0  0  0  0  0
    5.4196    0.5908   29.6400 H   0  0  0  1  0  1  0  0  0  0  0  0
   12.4184    8.2755   28.9490 H   0  0  0  1  0  1  0  0  0  0  0  0
   12.9158    7.3659   27.4819 H   0  0  0  1  0  1  0  0  0  0  0  0
   14.0432    6.6855   29.3872 H   0  0  0  1  0  1  0  0  0  0  0  0
  1  6  1  0  0  0  0
  1  7  1  0  0  0  0
  1 18  1  0  0  0  0
  1 25  1  0  0  0  0
  2 12  1  0  0  0  0
  2 13  1  0  0  0  0
  2 15  1  0  0  0  0
  2 30  1  0  0  0  0
  3  5  2  0  0  0  0
  3  8  1  0  0  0  0
  3 19  1  0  0  0  0
  4  6  1  0  0  0  0
  4  8  2  0  0  0  0
  4 10  1  0  0  0  0
  5  9  1  0  0  0  0
  5 27  1  0  0  0  0
  6 28  1  0  0  0  0
  6 29  1  0  0  0  0
  7 11  1  0  0  0  0
  7 31  1  0  0  0  0
  7 32  1  0  0  0  0
  8 33  1  0  0  0  0
  9 10  2  0  0  0  0
  9 24  1  0  0  0  0
 10 22  1  0  0  0  0
 11 12  1  0  0  0  0
 11 34  1  0  0  0  0
 11 35  1  0  0  0  0
 12 17  1  0  0  0  0
 12 36  1  0  0  0  0
 13 14  1  0  0  0  0
 13 37  1  0  0  0  0
 13 38  1  0  0  0  0
 14 39  1  0  0  0  0
 14 40  1  0  0  0  0
 14 41  1  0  0  0  0
 15 16  1  0  0  0  0
 15 42  1  0  0  0  0
 15 43  1  0  0  0  0
 16 44  1  0  0  0  0
 16 45  1  0  0  0  0
 16 46  1  0  0  0  0
 17 18  1  0  0  0  0
 17 47  1  0  0  0  0
 17 48  1  0  0  0  0
 18 49  1  0  0  0  0
 18 50  1  0  0  0  0
 19 20  3  0  0  0  0
 20 21  1  0  0  0  0
 21 23  1  0  0  0  0
 21 51  1  0  0  0  0
 21 52  1  0  0  0  0
 22 26  1  0  0  0  0
 23 53  1  0  0  0  0
M  END
> <ConfScore>
-0.39839 

$$$$
4agn


 53 54  0  0  0  0  0  0  0  0999 V2000
    5.4320    2.2550   28.3390 N   0  3  0  1  0  4  0  0  0  0  0  0
    4.8087   -1.3149   27.7656 N   0  3  0  1  0  4  0  0  0  0  0  0
    8.5794    5.9884   27.9655 C   0  0  0  1  0  3  0  0  0  0  0  0
    6.8799    4.3500   28.3599 C   0  0  0  1  0  3  0  0  0  0  0  0
    7.6880    6.7182   27.2104 C   0  0  0  1  0  3  0  0  0  0  0  0
    6.4640    3.0610   28.9950 C   0  0  0  1  0  4  0  0  0  0  0  0
    6.0520    1.4770   27.2550 C   0  0  0  1  0  4  0  0  0  0  0  0
    8.1699    4.8170   28.5532 C   0  0  0  1  0  3  0  0  0  0  0  0
    6.3835    6.2718   27.0379 C   0  0  0  1  0  3  0  0  0  0  0  0
    5.9752    5.0884   27.6156 C   0  0  0  1  0  3  0  0  0  0  0  0
    4.9600    0.8100   26.4490 C   0  0  0  1  0  4  0  0  0  0  0  0
    4.0370   -0.0500   27.3240 C   0  0  0  1  0  4  0  0  0  0  0  0
    4.0484   -2.3198   28.6226 C   0  0  0  1  0  4  0  0  0  0  0  0
    4.9032   -3.5293   28.9719 C   0  0  0  1  0  4  0  0  0  0  0  0
    6.1526   -0.9275   28.4155 C   0  0  0  1  0  4  0  0  0  0  0  0
    6.8924   -2.1756   28.8680 C   0  0  0  1  0  4  0  0  0  0  0  0
    3.5580    0.6920   28.5700 C   0  0  0  1  0  4  0  0  0  0  0  0
    4.7240    1.3610   29.2750 C   0  0  0  1  0  4  0  0  0  0  0  0
    9.9217    6.4475   28.1362 C   0  0  0  1  0  2  0  0  0  0  0  0
   11.0465    6.8410   28.2737 C   0  0  0  1  0  2  0  0  0  0  0  0
   12.4200    7.3184   28.4437 C   0  0  0  1  0  4  0  0  0  0  0  0
    4.6937    4.6495   27.4555 O   0  0  0  1  0  2  0  0  0  0  0  0
   12.6050    8.5445   27.7459 O   0  0  0  1  0  2  0  0  0  0  0  0
    5.0126    7.4173   25.8794 I   0  0  0  1  0  1  0  0  0  0  0  0
    4.7370    2.8836   27.9673 H   0  0  0  1  0  1  0  0  0  0  0  0
    4.0906    5.3193   27.7551 H   0  0  0  1  0  1  0  0  0  0  0  0
    8.0057    7.6454   26.7484 H   0  0  0  1  0  1  0  0  0  0  0  0
    7.3639    2.4334   29.0730 H   0  0  0  1  0  1  0  0  0  0  0  0
    6.0952    3.3010   30.0031 H   0  0  0  1  0  1  0  0  0  0  0  0
    5.0322   -1.8055   26.9140 H   0  0  0  1  0  1  0  0  0  0  0  0
    6.7161    0.7114   27.6825 H   0  0  0  1  0  1  0  0  0  0  0  0
    6.6345    2.1472   26.6052 H   0  0  0  1  0  1  0  0  0  0  0  0
    8.8599    4.2543   29.1719 H   0  0  0  1  0  1  0  0  0  0  0  0
    5.4247    0.1677   25.6863 H   0  0  0  1  0  1  0  0  0  0  0  0
    4.3577    1.5878   25.9566 H   0  0  0  1  0  1  0  0  0  0  0  0
    3.1596   -0.3441   26.7290 H   0  0  0  1  0  1  0  0  0  0  0  0
    3.1607   -2.6598   28.0701 H   0  0  0  1  0  1  0  0  0  0  0  0
    3.7341   -1.8263   29.5544 H   0  0  0  1  0  1  0  0  0  0  0  0
    5.7902   -3.2017   29.5321 H   0  0  0  1  0  1  0  0  0  0  0  0
    5.2188   -4.0343   28.0471 H   0  0  0  1  0  1  0  0  0  0  0  0
    4.3172   -4.2269   29.5881 H   0  0  0  1  0  1  0  0  0  0  0  0
    5.9633   -0.2818   29.2870 H   0  0  0  1  0  1  0  0  0  0  0  0
    6.7691   -0.3854   27.6839 H   0  0  0  1  0  1  0  0  0  0  0  0
    7.8566   -1.8890   29.3135 H   0  0  0  1  0  1  0  0  0  0  0  0
    7.0682   -2.8307   28.0028 H   0  0  0  1  0  1  0  0  0  0  0  0
    6.2873   -2.7092   29.6154 H   0  0  0  1  0  1  0  0  0  0  0  0
    3.0831   -0.0243   29.2570 H   0  0  0  1  0  1  0  0  0  0  0  0
    2.8262    1.4584   28.2752 H   0  0  0  1  0  1  0  0  0  0  0  0
    4.3471    1.9485   30.1257 H   0  0  0  1  0  1  0  0  0  0  0  0
    5.4196    0.5908   29.6400 H   0  0  0  1  0  1  0  0  0  0  0  0
   13.1176    6.5664   28.0472 H   0  0  0  1  0  1  0  0  0  0  0  0
   12.6197    7.4759   29.5143 H   0  0  0  1  0  1  0  0  0  0  0  0
   13.4991    8.8427   27.8641 H   0  0  0  1  0  1  0  0  0  0  0  0
  1  6  1  0  0  0  0
  1  7  1  0  0  0  0
  1 18  1  0  0  0  0
  1 25  1  0  0  0  0
  2 12  1  0  0  0  0
  2 13  1  0  0  0  0
  2 15  1  0  0  0  0
  2 30  1  0  0  0  0
  3  5  2  0  0  0  0
  3  8  1  0  0  0  0
  3 19  1  0  0  0  0
  4  6  1  0  0  0  0
  4  8  2  0  0  0  0
  4 10  1  0  0  0  0
  5  9  1  0  0  0  0
  5 27  1  0  0  0  0
  6 28  1  0  0  0  0
  6 29  1  0  0  0  0
  7 11  1  0  0  0  0
  7 31  1  0  0  0  0
  7 32  1  0  0  0  0
  8 33  1  0  0  0  0
  9 10  2  0  0  0  0
  9 24  1  0  0  0  0
 10 22  1  0  0  0  0
 11 12  1  0  0  0  0
 11 34  1  0  0  0  0
 11 35  1  0  0  0  0
 12 17  1  0  0  0  0
 12 36  1  0  0  0  0
 13 14  1  0  0  0  0
 13 37  1  0  0  0  0
 13 38  1  0  0  0  0
 14 39  1  0  0  0  0
 14 40  1  0  0  0  0
 14 41  1  0  0  0  0
 15 16  1  0  0  0  0
 15 42  1  0  0  0  0
 15 43  1  0  0  0  0
 16 44  1  0  0  0  0
 16 45  1  0  0  0  0
 16 46  1  0  0  0  0
 17 18  1  0  0  0  0
 17 47  1  0  0  0  0
 17 48  1  0  0  0  0
 18 49  1  0  0  0  0
 18 50  1  0  0  0  0
 19 20  3  0  0  0  0
 20 21  1  0  0  0  0
 21 23  1  0  0  0  0
 21 51  1  0  0  0  0
 21 52  1  0  0  0  0
 22 26  1  0  0  0  0
 23 53  1  0  0  0  0
M  END
> <ConfScore>
-0.39839 

$$$$
4agn


 53 54  0  0  0  0  0  0  0  0999 V2000
   24.4330    4.1140    6.3520 N   0  3  0  1  0  4  0  0  0  0  0  0
   25.1964    0.4472    8.5037 N   0  3  0  1  0  4  0  0  0  0  0  0
   22.7257    8.6179    5.6543 C   0  0  0  1  0  3  0  0  0  0  0  0
   23.8545    6.5047    6.0311 C   0  0  0  1  0  3  0  0  0  0  0  0
   22.6320    8.8166    7.0415 C   0  0  0  1  0  3  0  0  0  0  0  0
   24.5480    5.2730    5.4500 C   0  0  0  1  0  4  0  0  0  0  0  0
   25.4840    4.1440    7.3870 C   0  0  0  1  0  4  0  0  0  0  0  0
   23.3427    7.4576    5.1493 C   0  0  0  1  0  3  0  0  0  0  0  0
   23.1599    7.8336    7.9020 C   0  0  0  1  0  3  0  0  0  0  0  0
   23.7819    6.6688    7.4363 C   0  0  0  1  0  3  0  0  0  0  0  0
   25.3250    2.9490    8.3330 C   0  0  0  1  0  4  0  0  0  0  0  0
   25.4480    1.6410    7.5540 C   0  0  0  1  0  4  0  0  0  0  0  0
   26.0654    0.3676    9.7531 C   0  0  0  1  0  4  0  0  0  0  0  0
   26.0715    1.6791   10.5246 C   0  0  0  1  0  4  0  0  0  0  0  0
   25.2197   -0.8805    7.7193 C   0  0  0  1  0  4  0  0  0  0  0  0
   24.3439   -0.7709    6.4820 C   0  0  0  1  0  4  0  0  0  0  0  0
   24.4130    1.6290    6.4330 C   0  0  0  1  0  4  0  0  0  0  0  0
   24.5460    2.8760    5.5510 C   0  0  0  1  0  4  0  0  0  0  0  0
   22.2037    9.5569    4.7122 C   0  0  0  1  0  2  0  0  0  0  0  0
   21.7687   10.3392    3.9137 C   0  0  0  1  0  2  0  0  0  0  0  0
   21.2366   11.2962    2.9419 C   0  0  0  1  0  4  0  0  0  0  0  0
   24.2790    5.7043    8.2628 O   0  0  0  1  0  2  0  0  0  0  0  0
   21.4738   10.8356    1.6167 O   0  0  0  1  0  2  0  0  0  0  0  0
   23.0608    8.1362   10.0073 I   0  0  0  1  0  1  0  0  0  0  0  0
   23.5397    4.1450    6.8182 H   0  0  0  1  0  1  0  0  0  0  0  0
   24.1521    5.9667    9.1669 H   0  0  0  1  0  1  0  0  0  0  0  0
   22.1627    9.7074    7.4417 H   0  0  0  1  0  1  0  0  0  0  0  0
   24.0828    5.0227    4.4853 H   0  0  0  1  0  1  0  0  0  0  0  0
   25.6128    5.5017    5.2958 H   0  0  0  1  0  1  0  0  0  0  0  0
   24.2539    0.5650    8.8412 H   0  0  0  1  0  1  0  0  0  0  0  0
   25.4009    5.0775    7.9629 H   0  0  0  1  0  1  0  0  0  0  0  0
   26.4716    4.0970    6.9042 H   0  0  0  1  0  1  0  0  0  0  0  0
   23.4211    7.3060    4.0786 H   0  0  0  1  0  1  0  0  0  0  0  0
   24.3363    2.9945    8.8130 H   0  0  0  1  0  1  0  0  0  0  0  0
   26.1094    2.9884    9.1033 H   0  0  0  1  0  1  0  0  0  0  0  0
   26.4576    1.5618    7.1241 H   0  0  0  1  0  1  0  0  0  0  0  0
   27.0958    0.1256    9.4556 H   0  0  0  1  0  1  0  0  0  0  0  0
   25.6759   -0.4270   10.4069 H   0  0  0  1  0  1  0  0  0  0  0  0
   26.6937    1.5723   11.4242 H   0  0  0  1  0  1  0  0  0  0  0  0
   25.0431    1.9364   10.8180 H   0  0  0  1  0  1  0  0  0  0  0  0
   26.4810    2.4772    9.8881 H   0  0  0  1  0  1  0  0  0  0  0  0
   24.8405   -1.6901    8.3618 H   0  0  0  1  0  1  0  0  0  0  0  0
   26.2518   -1.1063    7.4145 H   0  0  0  1  0  1  0  0  0  0  0  0
   24.3819   -1.7164    5.9210 H   0  0  0  1  0  1  0  0  0  0  0  0
   24.7095    0.0480    5.8461 H   0  0  0  1  0  1  0  0  0  0  0  0
   23.3067   -0.5655    6.7846 H   0  0  0  1  0  1  0  0  0  0  0  0
   23.4051    1.6057    6.8739 H   0  0  0  1  0  1  0  0  0  0  0  0
   24.5636    0.7326    5.8138 H   0  0  0  1  0  1  0  0  0  0  0  0
   25.5270    2.8597    5.0527 H   0  0  0  1  0  1  0  0  0  0  0  0
   23.7488    2.8655    4.7929 H   0  0  0  1  0  1  0  0  0  0  0  0
   21.7304   12.2687    3.0819 H   0  0  0  1  0  1  0  0  0  0  0  0
   20.1533   11.4087    3.0990 H   0  0  0  1  0  1  0  0  0  0  0  0
   21.1242   11.4649    0.9970 H   0  0  0  1  0  1  0  0  0  0  0  0
  1  6  1  0  0  0  0
  1  7  1  0  0  0  0
  1 18  1  0  0  0  0
  1 25  1  0  0  0  0
  2 12  1  0  0  0  0
  2 13  1  0  0  0  0
  2 15  1  0  0  0  0
  2 30  1  0  0  0  0
  3  5  2  0  0  0  0
  3  8  1  0  0  0  0
  3 19  1  0  0  0  0
  4  6  1  0  0  0  0
  4  8  2  0  0  0  0
  4 10  1  0  0  0  0
  5  9  1  0  0  0  0
  5 27  1  0  0  0  0
  6 28  1  0  0  0  0
  6 29  1  0  0  0  0
  7 11  1  0  0  0  0
  7 31  1  0  0  0  0
  7 32  1  0  0  0  0
  8 33  1  0  0  0  0
  9 10  2  0  0  0  0
  9 24  1  0  0  0  0
 10 22  1  0  0  0  0
 11 12  1  0  0  0  0
 11 34  1  0  0  0  0
 11 35  1  0  0  0  0
 12 17  1  0  0  0  0
 12 36  1  0  0  0  0
 13 14  1  0  0  0  0
 13 37  1  0  0  0  0
 13 38  1  0  0  0  0
 14 39  1  0  0  0  0
 14 40  1  0  0  0  0
 14 41  1  0  0  0  0
 15 16  1  0  0  0  0
 15 42  1  0  0  0  0
 15 43  1  0  0  0  0
 16 44  1  0  0  0  0
 16 45  1  0  0  0  0
 16 46  1  0  0  0  0
 17 18  1  0  0  0  0
 17 47  1  0  0  0  0
 17 48  1  0  0  0  0
 18 49  1  0  0  0  0
 18 50  1  0  0  0  0
 19 20  3  0  0  0  0
 20 21  1  0  0  0  0
 21 23  1  0  0  0  0
 21 51  1  0  0  0  0
 21 52  1  0  0  0  0
 22 26  1  0  0  0  0
 23 53  1  0  0  0  0
M  END
> <ConfScore>
-0.38652 

$$$$
4agn


 53 54  0  0  0  0  0  0  0  0999 V2000
    2.5209    6.6299    6.3322 N   0  3  0  1  0  4  0  0  0  0  0  0
    1.3416    8.7866    9.1336 N   0  3  0  1  0  4  0  0  0  0  0  0
    1.1517    3.7592    3.2917 C   0  0  0  1  0  3  0  0  0  0  0  0
    1.9790    4.2140    5.5256 C   0  0  0  1  0  3  0  0  0  0  0  0
    0.5302    2.5896    3.7588 C   0  0  0  1  0  3  0  0  0  0  0  0
    2.7438    5.1386    6.4710 C   0  0  0  1  0  4  0  0  0  0  0  0
    1.0783    6.9623    6.6507 C   0  0  0  1  0  4  0  0  0  0  0  0
    1.8762    4.5749    4.1814 C   0  0  0  1  0  3  0  0  0  0  0  0
    0.6548    2.2565    5.1222 C   0  0  0  1  0  3  0  0  0  0  0  0
    1.3651    3.0440    6.0363 C   0  0  0  1  0  3  0  0  0  0  0  0
    0.8308    8.4545    6.7078 C   0  0  0  1  0  4  0  0  0  0  0  0
    1.7396    9.1749    7.6909 C   0  0  0  1  0  4  0  0  0  0  0  0
    2.2398    9.2948   10.2549 C   0  0  0  1  0  4  0  0  0  0  0  0
    2.4887   10.7921   10.1482 C   0  0  0  1  0  4  0  0  0  0  0  0
    1.1184    7.2643    9.2404 C   0  0  0  1  0  4  0  0  0  0  0  0
    0.4686    6.9244   10.5716 C   0  0  0  1  0  4  0  0  0  0  0  0
    3.1859    8.7850    7.4475 C   0  0  0  1  0  4  0  0  0  0  0  0
    3.3964    7.2849    7.3752 C   0  0  0  1  0  4  0  0  0  0  0  0
    1.0876    4.1626    1.9224 C   0  0  0  1  0  2  0  0  0  0  0  0
    1.0394    4.5093    0.7751 C   0  0  0  1  0  2  0  0  0  0  0  0
    0.9785    4.9296   -0.6260 C   0  0  0  1  0  4  0  0  0  0  0  0
    1.5055    2.7187    7.3536 O   0  0  0  1  0  2  0  0  0  0  0  0
    1.6949    6.1455   -0.8068 O   0  0  0  1  0  2  0  0  0  0  0  0
   -0.3129    0.5073    5.8554 I   0  0  0  1  0  1  0  0  0  0  0  0
    2.7338    6.9425    5.3977 H   0  0  0  1  0  1  0  0  0  0  0  0
    1.0366    1.9121    7.5316 H   0  0  0  1  0  1  0  0  0  0  0  0
   -0.0333    1.9561    3.0841 H   0  0  0  1  0  1  0  0  0  0  0  0
    2.4667    4.8596    7.4982 H   0  0  0  1  0  1  0  0  0  0  0  0
    3.8166    4.9514    6.3164 H   0  0  0  1  0  1  0  0  0  0  0  0
    0.4455    9.2202    9.2921 H   0  0  0  1  0  1  0  0  0  0  0  0
    0.8217    6.5239    7.6263 H   0  0  0  1  0  1  0  0  0  0  0  0
    0.4348    6.5267    5.8716 H   0  0  0  1  0  1  0  0  0  0  0  0
    2.3514    5.4814    3.8234 H   0  0  0  1  0  1  0  0  0  0  0  0
   -0.2137    8.6243    7.0083 H   0  0  0  1  0  1  0  0  0  0  0  0
    0.9974    8.8751    5.7050 H   0  0  0  1  0  1  0  0  0  0  0  0
    1.6289   10.2616    7.5592 H   0  0  0  1  0  1  0  0  0  0  0  0
    3.2045    8.7698   10.2045 H   0  0  0  1  0  1  0  0  0  0  0  0
    1.7568    9.0832   11.2206 H   0  0  0  1  0  1  0  0  0  0  0  0
    2.9922   11.0131    9.1965 H   0  0  0  1  0  1  0  0  0  0  0  0
    3.1246   11.1183   10.9843 H   0  0  0  1  0  1  0  0  0  0  0  0
    1.5287   11.3273   10.1881 H   0  0  0  1  0  1  0  0  0  0  0  0
    2.0880    6.7478    9.1675 H   0  0  0  1  0  1  0  0  0  0  0  0
    0.4634    6.9330    8.4217 H   0  0  0  1  0  1  0  0  0  0  0  0
    0.2978    5.8392   10.6296 H   0  0  0  1  0  1  0  0  0  0  0  0
   -0.4923    7.4520   10.6551 H   0  0  0  1  0  1  0  0  0  0  0  0
    1.1308    7.2359   11.3925 H   0  0  0  1  0  1  0  0  0  0  0  0
    3.7988    9.1848    8.2693 H   0  0  0  1  0  1  0  0  0  0  0  0
    3.5123    9.2299    6.4961 H   0  0  0  1  0  1  0  0  0  0  0  0
    4.4501    7.0876    7.1265 H   0  0  0  1  0  1  0  0  0  0  0  0
    3.1629    6.8478    8.3574 H   0  0  0  1  0  1  0  0  0  0  0  0
   -0.0717    5.0808   -0.9146 H   0  0  0  1  0  1  0  0  0  0  0  0
    1.4242    4.1477   -1.2592 H   0  0  0  1  0  1  0  0  0  0  0  0
    1.6474    6.4067   -1.7189 H   0  0  0  1  0  1  0  0  0  0  0  0
  1  6  1  0  0  0  0
  1  7  1  0  0  0  0
  1 18  1  0  0  0  0
  1 25  1  0  0  0  0
  2 12  1  0  0  0  0
  2 13  1  0  0  0  0
  2 15  1  0  0  0  0
  2 30  1  0  0  0  0
  3  5  2  0  0  0  0
  3  8  1  0  0  0  0
  3 19  1  0  0  0  0
  4  6  1  0  0  0  0
  4  8  2  0  0  0  0
  4 10  1  0  0  0  0
  5  9  1  0  0  0  0
  5 27  1  0  0  0  0
  6 28  1  0  0  0  0
  6 29  1  0  0  0  0
  7 11  1  0  0  0  0
  7 31  1  0  0  0  0
  7 32  1  0  0  0  0
  8 33  1  0  0  0  0
  9 10  2  0  0  0  0
  9 24  1  0  0  0  0
 10 22  1  0  0  0  0
 11 12  1  0  0  0  0
 11 34  1  0  0  0  0
 11 35  1  0  0  0  0
 12 17  1  0  0  0  0
 12 36  1  0  0  0  0
 13 14  1  0  0  0  0
 13 37  1  0  0  0  0
 13 38  1  0  0  0  0
 14 39  1  0  0  0  0
 14 40  1  0  0  0  0
 14 41  1  0  0  0  0
 15 16  1  0  0  0  0
 15 42  1  0  0  0  0
 15 43  1  0  0  0  0
 16 44  1  0  0  0  0
 16 45  1  0  0  0  0
 16 46  1  0  0  0  0
 17 18  1  0  0  0  0
 17 47  1  0  0  0  0
 17 48  1  0  0  0  0
 18 49  1  0  0  0  0
 18 50  1  0  0  0  0
 19 20  3  0  0  0  0
 20 21  1  0  0  0  0
 21 23  1  0  0  0  0
 21 51  1  0  0  0  0
 21 52  1  0  0  0  0
 22 26  1  0  0  0  0
 23 53  1  0  0  0  0
M  END
> <ConfScore>
-0.380595 

$$$$
4agn


 53 54  0  0  0  0  0  0  0  0999 V2000
   90.4980   98.3810  -44.6910 N   0  3  0  1  0  4  0  0  0  0  0  0
   92.0509  102.3792  -44.2366 N   0  3  0  1  0  4  0  0  0  0  0  0
   91.6101   93.9178  -46.2918 C   0  0  0  1  0  3  0  0  0  0  0  0
   90.8528   95.9992  -45.3037 C   0  0  0  1  0  3  0  0  0  0  0  0
   92.5493   93.7676  -45.2584 C   0  0  0  1  0  3  0  0  0  0  0  0
   89.9050   97.1660  -45.3350 C   0  0  0  1  0  4  0  0  0  0  0  0
   89.5430   99.5450  -44.7170 C   0  0  0  1  0  4  0  0  0  0  0  0
   90.7572   95.0378  -46.3108 C   0  0  0  1  0  3  0  0  0  0  0  0
   92.6175   94.7577  -44.2583 C   0  0  0  1  0  3  0  0  0  0  0  0
   91.7848   95.8832  -44.2432 C   0  0  0  1  0  3  0  0  0  0  0  0
   90.1750  100.7310  -44.0050 C   0  0  0  1  0  4  0  0  0  0  0  0
   91.4300  101.0810  -44.8020 C   0  0  0  1  0  4  0  0  0  0  0  0
   93.2367  102.9616  -44.9963 C   0  0  0  1  0  4  0  0  0  0  0  0
   93.2754  102.4840  -46.4405 C   0  0  0  1  0  4  0  0  0  0  0  0
   92.3718  102.2152  -42.7371 C   0  0  0  1  0  4  0  0  0  0  0  0
   91.1561  101.6797  -41.9988 C   0  0  0  1  0  4  0  0  0  0  0  0
   92.4510   99.9400  -44.6950 C   0  0  0  1  0  4  0  0  0  0  0  0
   91.8210   98.7070  -45.3220 C   0  0  0  1  0  4  0  0  0  0  0  0
   91.4846   92.9687  -47.3526 C   0  0  0  1  0  2  0  0  0  0  0  0
   91.3719   92.1776  -48.2472 C   0  0  0  1  0  2  0  0  0  0  0  0
   91.2370   91.2100  -49.3375 C   0  0  0  1  0  4  0  0  0  0  0  0
   91.8572   96.8550  -43.2888 O   0  0  0  1  0  2  0  0  0  0  0  0
   90.2105   91.6185  -50.2341 O   0  0  0  1  0  2  0  0  0  0  0  0
   94.0091   94.5270  -42.6633 I   0  0  0  1  0  1  0  0  0  0  0  0
   90.6653   98.1804  -43.7174 H   0  0  0  1  0  1  0  0  0  0  0  0
   92.5275   96.6267  -42.6556 H   0  0  0  1  0  1  0  0  0  0  0  0
   93.2082   92.9080  -45.2313 H   0  0  0  1  0  1  0  0  0  0  0  0
   89.6632   97.4003  -46.3821 H   0  0  0  1  0  1  0  0  0  0  0  0
   88.9849   96.8918  -44.7982 H   0  0  0  1  0  1  0  0  0  0  0  0
   91.3249  103.0755  -44.3006 H   0  0  0  1  0  1  0  0  0  0  0  0
   88.6095   99.2654  -44.2068 H   0  0  0  1  0  1  0  0  0  0  0  0
   89.3241   99.8172  -45.7604 H   0  0  0  1  0  1  0  0  0  0  0  0
   90.0276   95.1518  -47.1047 H   0  0  0  1  0  1  0  0  0  0  0  0
   90.4413  100.4593  -42.9728 H   0  0  0  1  0  1  0  0  0  0  0  0
   89.4801  101.5838  -43.9926 H   0  0  0  1  0  1  0  0  0  0  0  0
   91.1611  101.2321  -45.8581 H   0  0  0  1  0  1  0  0  0  0  0  0
   94.1662  102.6549  -44.4956 H   0  0  0  1  0  1  0  0  0  0  0  0
   93.1599  104.0592  -44.9875 H   0  0  0  1  0  1  0  0  0  0  0  0
   94.1428  102.9267  -46.9499 H   0  0  0  1  0  1  0  0  0  0  0  0
   92.3522  102.7917  -46.9531 H   0  0  0  1  0  1  0  0  0  0  0  0
   93.3578  101.3874  -46.4621 H   0  0  0  1  0  1  0  0  0  0  0  0
   92.6511  103.1930  -42.3151 H   0  0  0  1  0  1  0  0  0  0  0  0
   93.2081  101.5113  -42.6176 H   0  0  0  1  0  1  0  0  0  0  0  0
   91.4014  101.5497  -40.9344 H   0  0  0  1  0  1  0  0  0  0  0  0
   90.8640  100.7110  -42.4290 H   0  0  0  1  0  1  0  0  0  0  0  0
   90.3238  102.3916  -42.0991 H   0  0  0  1  0  1  0  0  0  0  0  0
   92.6879   99.7452  -43.6383 H   0  0  0  1  0  1  0  0  0  0  0  0
   93.3715  100.2074  -45.2344 H   0  0  0  1  0  1  0  0  0  0  0  0
   91.6686   98.8910  -46.3962 H   0  0  0  1  0  1  0  0  0  0  0  0
   92.5004   97.8520  -45.1886 H   0  0  0  1  0  1  0  0  0  0  0  0
   90.9829   90.2250  -48.9197 H   0  0  0  1  0  1  0  0  0  0  0  0
   92.1902   91.1424  -49.8830 H   0  0  0  1  0  1  0  0  0  0  0  0
   90.1334   90.9828  -50.9357 H   0  0  0  1  0  1  0  0  0  0  0  0
  1  6  1  0  0  0  0
  1  7  1  0  0  0  0
  1 18  1  0  0  0  0
  1 25  1  0  0  0  0
  2 12  1  0  0  0  0
  2 13  1  0  0  0  0
  2 15  1  0  0  0  0
  2 30  1  0  0  0  0
  3  5  2  0  0  0  0
  3  8  1  0  0  0  0
  3 19  1  0  0  0  0
  4  6  1  0  0  0  0
  4  8  2  0  0  0  0
  4 10  1  0  0  0  0
  5  9  1  0  0  0  0
  5 27  1  0  0  0  0
  6 28  1  0  0  0  0
  6 29  1  0  0  0  0
  7 11  1  0  0  0  0
  7 31  1  0  0  0  0
  7 32  1  0  0  0  0
  8 33  1  0  0  0  0
  9 10  2  0  0  0  0
  9 24  1  0  0  0  0
 10 22  1  0  0  0  0
 11 12  1  0  0  0  0
 11 34  1  0  0  0  0
 11 35  1  0  0  0  0
 12 17  1  0  0  0  0
 12 36  1  0  0  0  0
 13 14  1  0  0  0  0
 13 37  1  0  0  0  0
 13 38  1  0  0  0  0
 14 39  1  0  0  0  0
 14 40  1  0  0  0  0
 14 41  1  0  0  0  0
 15 16  1  0  0  0  0
 15 42  1  0  0  0  0
 15 43  1  0  0  0  0
 16 44  1  0  0  0  0
 16 45  1  0  0  0  0
 16 46  1  0  0  0  0
 17 18  1  0  0  0  0
 17 47  1  0  0  0  0
 17 48  1  0  0  0  0
 18 49  1  0  0  0  0
 18 50  1  0  0  0  0
 19 20  3  0  0  0  0
 20 21  1  0  0  0  0
 21 23  1  0  0  0  0
 21 51  1  0  0  0  0
 21 52  1  0  0  0  0
 22 26  1  0  0  0  0
 23 53  1  0  0  0  0
M  END
> <ConfScore>
-0.376579 

$$$$
4agn


 53 54  0  0  0  0  0  0  0  0999 V2000
  123.9490  107.6520  -44.6590 N   0  3  0  1  0  4  0  0  0  0  0  0
  125.5290  111.6900  -44.2880 N   0  3  0  1  0  4  0  0  0  0  0  0
  124.4295  102.8669  -45.2908 C   0  0  0  1  0  3  0  0  0  0  0  0
  123.8916  105.1949  -44.8749 C   0  0  0  1  0  3  0  0  0  0  0  0
  124.8034  102.7118  -43.9459 C   0  0  0  1  0  3  0  0  0  0  0  0
  123.3640  106.5050  -45.3940 C   0  0  0  1  0  4  0  0  0  0  0  0
  123.0140  108.8340  -44.7100 C   0  0  0  1  0  4  0  0  0  0  0  0
  123.9691  104.1140  -45.7543 C   0  0  0  1  0  3  0  0  0  0  0  0
  124.7119  103.8247  -43.0866 C   0  0  0  1  0  3  0  0  0  0  0  0
  124.2570  105.0790  -43.5111 C   0  0  0  1  0  3  0  0  0  0  0  0
  123.6210  109.9990  -43.9480 C   0  0  0  1  0  4  0  0  0  0  0  0
  124.9020  110.3390  -44.7030 C   0  0  0  1  0  4  0  0  0  0  0  0
  126.6754  111.6367  -43.2854 C   0  0  0  1  0  4  0  0  0  0  0  0
  127.2597  113.0159  -43.0175 C   0  0  0  1  0  4  0  0  0  0  0  0
  124.4336  112.6766  -43.8350 C   0  0  0  1  0  4  0  0  0  0  0  0
  123.3415  112.7634  -44.8883 C   0  0  0  1  0  4  0  0  0  0  0  0
  125.9160  109.1940  -44.5320 C   0  0  0  1  0  4  0  0  0  0  0  0
  125.3110  107.9640  -45.2000 C   0  0  0  1  0  4  0  0  0  0  0  0
  124.5053  101.7946  -46.2322 C   0  0  0  1  0  2  0  0  0  0  0  0
  124.5654  100.9006  -47.0297 C   0  0  0  1  0  2  0  0  0  0  0  0
  124.6401   99.8073  -48.0005 C   0  0  0  1  0  4  0  0  0  0  0  0
  124.1830  106.1655  -42.6898 O   0  0  0  1  0  2  0  0  0  0  0  0
  124.1997  100.2524  -49.2781 O   0  0  0  1  0  2  0  0  0  0  0  0
  125.2383  103.5980  -41.0359 I   0  0  0  1  0  1  0  0  0  0  0  0
  124.0560  107.3880  -43.6920 H   0  0  0  1  0  1  0  0  0  0  0  0
  124.4612  105.9201  -41.8154 H   0  0  0  1  0  1  0  0  0  0  0  0
  125.1556  101.7559  -43.5770 H   0  0  0  1  0  1  0  0  0  0  0  0
  122.2708  106.5233  -45.2739 H   0  0  0  1  0  1  0  0  0  0  0  0
  123.6170  106.5958  -46.4606 H   0  0  0  1  0  1  0  0  0  0  0  0
  125.9290  112.0719  -45.1307 H   0  0  0  1  0  1  0  0  0  0  0  0
  122.0520  108.5590  -44.2530 H   0  0  0  1  0  1  0  0  0  0  0  0
  122.8510  109.1270  -45.7580 H   0  0  0  1  0  1  0  0  0  0  0  0
  123.6743  104.2334  -46.7908 H   0  0  0  1  0  1  0  0  0  0  0  0
  123.8480  109.7070  -42.9120 H   0  0  0  1  0  1  0  0  0  0  0  0
  122.9350  110.8590  -43.9450 H   0  0  0  1  0  1  0  0  0  0  0  0
  124.6480  110.4120  -45.7710 H   0  0  0  1  0  1  0  0  0  0  0  0
  127.4675  110.9866  -43.6839 H   0  0  0  1  0  1  0  0  0  0  0  0
  126.3003  111.2201  -42.3385 H   0  0  0  1  0  1  0  0  0  0  0  0
  128.0690  112.9339  -42.2785 H   0  0  0  1  0  1  0  0  0  0  0  0
  126.4724  113.6780  -42.6278 H   0  0  0  1  0  1  0  0  0  0  0  0
  127.6586  113.4334  -43.9536 H   0  0  0  1  0  1  0  0  0  0  0  0
  124.8781  113.6734  -43.6901 H   0  0  0  1  0  1  0  0  0  0  0  0
  123.9973  112.3279  -42.8878 H   0  0  0  1  0  1  0  0  0  0  0  0
  122.5573  113.4555  -44.5473 H   0  0  0  1  0  1  0  0  0  0  0  0
  122.9068  111.7663  -45.0479 H   0  0  0  1  0  1  0  0  0  0  0  0
  123.7708  113.1317  -45.8315 H   0  0  0  1  0  1  0  0  0  0  0  0
  126.0880  108.9980  -43.4630 H   0  0  0  1  0  1  0  0  0  0  0  0
  126.8680  109.4570  -45.0160 H   0  0  0  1  0  1  0  0  0  0  0  0
  125.2310  108.1480  -46.2820 H   0  0  0  1  0  1  0  0  0  0  0  0
  125.9710  107.1020  -45.0220 H   0  0  0  1  0  1  0  0  0  0  0  0
  124.0000   98.9788  -47.6644 H   0  0  0  1  0  1  0  0  0  0  0  0
  125.6813   99.4594  -48.0760 H   0  0  0  1  0  1  0  0  0  0  0  0
  124.2529   99.5343  -49.8977 H   0  0  0  1  0  1  0  0  0  0  0  0
  1  6  1  0  0  0  0
  1  7  1  0  0  0  0
  1 18  1  0  0  0  0
  1 25  1  0  0  0  0
  2 12  1  0  0  0  0
  2 13  1  0  0  0  0
  2 15  1  0  0  0  0
  2 30  1  0  0  0  0
  3  5  2  0  0  0  0
  3  8  1  0  0  0  0
  3 19  1  0  0  0  0
  4  6  1  0  0  0  0
  4  8  2  0  0  0  0
  4 10  1  0  0  0  0
  5  9  1  0  0  0  0
  5 27  1  0  0  0  0
  6 28  1  0  0  0  0
  6 29  1  0  0  0  0
  7 11  1  0  0  0  0
  7 31  1  0  0  0  0
  7 32  1  0  0  0  0
  8 33  1  0  0  0  0
  9 10  2  0  0  0  0
  9 24  1  0  0  0  0
 10 22  1  0  0  0  0
 11 12  1  0  0  0  0
 11 34  1  0  0  0  0
 11 35  1  0  0  0  0
 12 17  1  0  0  0  0
 12 36  1  0  0  0  0
 13 14  1  0  0  0  0
 13 37  1  0  0  0  0
 13 38  1  0  0  0  0
 14 39  1  0  0  0  0
 14 40  1  0  0  0  0
 14 41  1  0  0  0  0
 15 16  1  0  0  0  0
 15 42  1  0  0  0  0
 15 43  1  0  0  0  0
 16 44  1  0  0  0  0
 16 45  1  0  0  0  0
 16 46  1  0  0  0  0
 17 18  1  0  0  0  0
 17 47  1  0  0  0  0
 17 48  1  0  0  0  0
 18 49  1  0  0  0  0
 18 50  1  0  0  0  0
 19 20  3  0  0  0  0
 20 21  1  0  0  0  0
 21 23  1  0  0  0  0
 21 51  1  0  0  0  0
 21 52  1  0  0  0  0
 22 26  1  0  0  0  0
 23 53  1  0  0  0  0
M  END
> <ConfScore>
-0.367382 

$$$$
4agn


 53 54  0  0  0  0  0  0  0  0999 V2000
    5.4320    2.2550   28.3390 N   0  3  0  1  0  4  0  0  0  0  0  0
    4.8087   -1.3149   27.7656 N   0  3  0  1  0  4  0  0  0  0  0  0
    8.5794    5.9884   27.9655 C   0  0  0  1  0  3  0  0  0  0  0  0
    6.8799    4.3500   28.3599 C   0  0  0  1  0  3  0  0  0  0  0  0
    7.6880    6.7182   27.2104 C   0  0  0  1  0  3  0  0  0  0  0  0
    6.4640    3.0610   28.9950 C   0  0  0  1  0  4  0  0  0  0  0  0
    6.0520    1.4770   27.2550 C   0  0  0  1  0  4  0  0  0  0  0  0
    8.1699    4.8170   28.5532 C   0  0  0  1  0  3  0  0  0  0  0  0
    6.3835    6.2718   27.0379 C   0  0  0  1  0  3  0  0  0  0  0  0
    5.9752    5.0884   27.6156 C   0  0  0  1  0  3  0  0  0  0  0  0
    4.9600    0.8100   26.4490 C   0  0  0  1  0  4  0  0  0  0  0  0
    4.0370   -0.0500   27.3240 C   0  0  0  1  0  4  0  0  0  0  0  0
    5.7162   -1.1768   28.9821 C   0  0  0  1  0  4  0  0  0  0  0  0
    6.4000   -2.4904   29.3320 C   0  0  0  1  0  4  0  0  0  0  0  0
    5.5636   -1.9311   26.5702 C   0  0  0  1  0  4  0  0  0  0  0  0
    6.3385   -3.1590   27.0193 C   0  0  0  1  0  4  0  0  0  0  0  0
    3.5580    0.6920   28.5700 C   0  0  0  1  0  4  0  0  0  0  0  0
    4.7240    1.3610   29.2750 C   0  0  0  1  0  4  0  0  0  0  0  0
    9.9217    6.4475   28.1362 C   0  0  0  1  0  2  0  0  0  0  0  0
   11.0506    6.8248   28.2852 C   0  0  0  1  0  2  0  0  0  0  0  0
   12.4276    7.2881   28.4650 C   0  0  0  1  0  4  0  0  0  0  0  0
    4.6937    4.6495   27.4555 O   0  0  0  1  0  2  0  0  0  0  0  0
   13.1527    6.3733   29.2785 O   0  0  0  1  0  2  0  0  0  0  0  0
    5.0126    7.4173   25.8794 I   0  0  0  1  0  1  0  0  0  0  0  0
    4.7370    2.8836   27.9673 H   0  0  0  1  0  1  0  0  0  0  0  0
    4.0906    5.3193   27.7551 H   0  0  0  1  0  1  0  0  0  0  0  0
    8.0057    7.6454   26.7484 H   0  0  0  1  0  1  0  0  0  0  0  0
    7.3639    2.4334   29.0730 H   0  0  0  1  0  1  0  0  0  0  0  0
    6.0952    3.3010   30.0031 H   0  0  0  1  0  1  0  0  0  0  0  0
    4.1022   -1.9819   28.0340 H   0  0  0  1  0  1  0  0  0  0  0  0
    6.7161    0.7114   27.6825 H   0  0  0  1  0  1  0  0  0  0  0  0
    6.6345    2.1472   26.6052 H   0  0  0  1  0  1  0  0  0  0  0  0
    8.8599    4.2543   29.1719 H   0  0  0  1  0  1  0  0  0  0  0  0
    5.4247    0.1677   25.6863 H   0  0  0  1  0  1  0  0  0  0  0  0
    4.3577    1.5878   25.9566 H   0  0  0  1  0  1  0  0  0  0  0  0
    3.1596   -0.3441   26.7290 H   0  0  0  1  0  1  0  0  0  0  0  0
    5.1131   -0.8503   29.8414 H   0  0  0  1  0  1  0  0  0  0  0  0
    6.4870   -0.4219   28.7665 H   0  0  0  1  0  1  0  0  0  0  0  0
    7.0428   -2.3460   30.2117 H   0  0  0  1  0  1  0  0  0  0  0  0
    7.0120   -2.8231   28.4807 H   0  0  0  1  0  1  0  0  0  0  0  0
    5.6386   -3.2521   29.5552 H   0  0  0  1  0  1  0  0  0  0  0  0
    6.2658   -1.1885   26.1607 H   0  0  0  1  0  1  0  0  0  0  0  0
    4.8418   -2.2216   25.7931 H   0  0  0  1  0  1  0  0  0  0  0  0
    6.8582   -3.6005   26.1560 H   0  0  0  1  0  1  0  0  0  0  0  0
    5.6421   -3.8959   27.4444 H   0  0  0  1  0  1  0  0  0  0  0  0
    7.0756   -2.8682   27.7818 H   0  0  0  1  0  1  0  0  0  0  0  0
    3.0831   -0.0243   29.2570 H   0  0  0  1  0  1  0  0  0  0  0  0
    2.8262    1.4584   28.2752 H   0  0  0  1  0  1  0  0  0  0  0  0
    4.3471    1.9485   30.1257 H   0  0  0  1  0  1  0  0  0  0  0  0
    5.4196    0.5908   29.6400 H   0  0  0  1  0  1  0  0  0  0  0  0
   12.4184    8.2755   28.9490 H   0  0  0  1  0  1  0  0  0  0  0  0
   12.9158    7.3659   27.4819 H   0  0  0  1  0  1  0  0  0  0  0  0
   14.0432    6.6855   29.3872 H   0  0  0  1  0  1  0  0  0  0  0  0
  1  6  1  0  0  0  0
  1  7  1  0  0  0  0
  1 18  1  0  0  0  0
  1 25  1  0  0  0  0
  2 12  1  0  0  0  0
  2 13  1  0  0  0  0
  2 15  1  0  0  0  0
  2 30  1  0  0  0  0
  3  5  2  0  0  0  0
  3  8  1  0  0  0  0
  3 19  1  0  0  0  0
  4  6  1  0  0  0  0
  4  8  2  0  0  0  0
  4 10  1  0  0  0  0
  5  9  1  0  0  0  0
  5 27  1  0  0  0  0
  6 28  1  0  0  0  0
  6 29  1  0  0  0  0
  7 11  1  0  0  0  0
  7 31  1  0  0  0  0
  7 32  1  0  0  0  0
  8 33  1  0  0  0  0
  9 10  2  0  0  0  0
  9 24  1  0  0  0  0
 10 22  1  0  0  0  0
 11 12  1  0  0  0  0
 11 34  1  0  0  0  0
 11 35  1  0  0  0  0
 12 17  1  0  0  0  0
 12 36  1  0  0  0  0
 13 14  1  0  0  0  0
 13 37  1  0  0  0  0
 13 38  1  0  0  0  0
 14 39  1  0  0  0  0
 14 40  1  0  0  0  0
 14 41  1  0  0  0  0
 15 16  1  0  0  0  0
 15 42  1  0  0  0  0
 15 43  1  0  0  0  0
 16 44  1  0  0  0  0
 16 45  1  0  0  0  0
 16 46  1  0  0  0  0
 17 18  1  0  0  0  0
 17 47  1  0  0  0  0
 17 48  1  0  0  0  0
 18 49  1  0  0  0  0
 18 50  1  0  0  0  0
 19 20  3  0  0  0  0
 20 21  1  0  0  0  0
 21 23  1  0  0  0  0
 21 51  1  0  0  0  0
 21 52  1  0  0  0  0
 22 26  1  0  0  0  0
 23 53  1  0  0  0  0
M  END
> <ConfScore>
-0.350375 

$$$$
4agn


 53 54  0  0  0  0  0  0  0  0999 V2000
   90.4980   98.3810  -44.6910 N   0  3  0  1  0  4  0  0  0  0  0  0
   92.0509  102.3792  -44.2366 N   0  3  0  1  0  4  0  0  0  0  0  0
   90.0009   93.5507  -44.1653 C   0  0  0  1  0  3  0  0  0  0  0  0
   89.9701   95.9678  -44.4308 C   0  0  0  1  0  3  0  0  0  0  0  0
   89.9544   93.6822  -42.7714 C   0  0  0  1  0  3  0  0  0  0  0  0
   89.9050   97.1660  -45.3350 C   0  0  0  1  0  4  0  0  0  0  0  0
   89.5430   99.5450  -44.7170 C   0  0  0  1  0  4  0  0  0  0  0  0
   90.0078   94.6849  -44.9916 C   0  0  0  1  0  3  0  0  0  0  0  0
   89.9203   94.9770  -42.2286 C   0  0  0  1  0  3  0  0  0  0  0  0
   89.9229   96.1395  -43.0221 C   0  0  0  1  0  3  0  0  0  0  0  0
   90.1750  100.7310  -44.0050 C   0  0  0  1  0  4  0  0  0  0  0  0
   91.4300  101.0810  -44.8020 C   0  0  0  1  0  4  0  0  0  0  0  0
   93.2367  102.9616  -44.9963 C   0  0  0  1  0  4  0  0  0  0  0  0
   92.9429  103.1065  -46.4823 C   0  0  0  1  0  4  0  0  0  0  0  0
   92.3718  102.2152  -42.7371 C   0  0  0  1  0  4  0  0  0  0  0  0
   92.7210  103.5630  -42.1277 C   0  0  0  1  0  4  0  0  0  0  0  0
   92.4510   99.9400  -44.6950 C   0  0  0  1  0  4  0  0  0  0  0  0
   91.8210   98.7070  -45.3220 C   0  0  0  1  0  4  0  0  0  0  0  0
   90.0416   92.2483  -44.7517 C   0  0  0  1  0  2  0  0  0  0  0  0
   90.0819   91.1585  -45.2513 C   0  0  0  1  0  2  0  0  0  0  0  0
   90.1289   89.8271  -45.8584 C   0  0  0  1  0  4  0  0  0  0  0  0
   89.8818   97.3818  -42.4602 O   0  0  0  1  0  2  0  0  0  0  0  0
   90.9532   89.8437  -47.0181 O   0  0  0  1  0  2  0  0  0  0  0  0
   89.8620   95.1911  -40.1109 I   0  0  0  1  0  1  0  0  0  0  0  0
   90.6653   98.1804  -43.7174 H   0  0  0  1  0  1  0  0  0  0  0  0
   89.2933   97.3720  -41.7146 H   0  0  0  1  0  1  0  0  0  0  0  0
   89.9450   92.8091  -42.1298 H   0  0  0  1  0  1  0  0  0  0  0  0
   90.4604   96.9457  -46.2585 H   0  0  0  1  0  1  0  0  0  0  0  0
   88.8523   97.3707  -45.5796 H   0  0  0  1  0  1  0  0  0  0  0  0
   91.3249  103.0755  -44.3006 H   0  0  0  1  0  1  0  0  0  0  0  0
   88.6095   99.2654  -44.2068 H   0  0  0  1  0  1  0  0  0  0  0  0
   89.3241   99.8172  -45.7604 H   0  0  0  1  0  1  0  0  0  0  0  0
   90.0426   94.5675  -46.0689 H   0  0  0  1  0  1  0  0  0  0  0  0
   90.4413  100.4593  -42.9728 H   0  0  0  1  0  1  0  0  0  0  0  0
   89.4801  101.5838  -43.9926 H   0  0  0  1  0  1  0  0  0  0  0  0
   91.1611  101.2321  -45.8581 H   0  0  0  1  0  1  0  0  0  0  0  0
   94.1030  102.2969  -44.8686 H   0  0  0  1  0  1  0  0  0  0  0  0
   93.4711  103.9539  -44.5825 H   0  0  0  1  0  1  0  0  0  0  0  0
   92.7295  102.1176  -46.9118 H   0  0  0  1  0  1  0  0  0  0  0  0
   93.8159  103.5455  -46.9873 H   0  0  0  1  0  1  0  0  0  0  0  0
   92.0713  103.7627  -46.6216 H   0  0  0  1  0  1  0  0  0  0  0  0
   93.2268  101.5315  -42.6200 H   0  0  0  1  0  1  0  0  0  0  0  0
   91.4953  101.7991  -42.2196 H   0  0  0  1  0  1  0  0  0  0  0  0
   92.9305  103.4372  -41.0551 H   0  0  0  1  0  1  0  0  0  0  0  0
   91.8756  104.2536  -42.2579 H   0  0  0  1  0  1  0  0  0  0  0  0
   93.6099  103.9724  -42.6294 H   0  0  0  1  0  1  0  0  0  0  0  0
   92.6879   99.7452  -43.6383 H   0  0  0  1  0  1  0  0  0  0  0  0
   93.3715  100.2074  -45.2344 H   0  0  0  1  0  1  0  0  0  0  0  0
   91.6686   98.8910  -46.3962 H   0  0  0  1  0  1  0  0  0  0  0  0
   92.5004   97.8520  -45.1886 H   0  0  0  1  0  1  0  0  0  0  0  0
   89.1114   89.5205  -46.1408 H   0  0  0  1  0  1  0  0  0  0  0  0
   90.5395   89.1107  -45.1310 H   0  0  0  1  0  1  0  0  0  0  0  0
   90.9749   88.9750  -47.4018 H   0  0  0  1  0  1  0  0  0  0  0  0
  1  6  1  0  0  0  0
  1  7  1  0  0  0  0
  1 18  1  0  0  0  0
  1 25  1  0  0  0  0
  2 12  1  0  0  0  0
  2 13  1  0  0  0  0
  2 15  1  0  0  0  0
  2 30  1  0  0  0  0
  3  5  2  0  0  0  0
  3  8  1  0  0  0  0
  3 19  1  0  0  0  0
  4  6  1  0  0  0  0
  4  8  2  0  0  0  0
  4 10  1  0  0  0  0
  5  9  1  0  0  0  0
  5 27  1  0  0  0  0
  6 28  1  0  0  0  0
  6 29  1  0  0  0  0
  7 11  1  0  0  0  0
  7 31  1  0  0  0  0
  7 32  1  0  0  0  0
  8 33  1  0  0  0  0
  9 10  2  0  0  0  0
  9 24  1  0  0  0  0
 10 22  1  0  0  0  0
 11 12  1  0  0  0  0
 11 34  1  0  0  0  0
 11 35  1  0  0  0  0
 12 17  1  0  0  0  0
 12 36  1  0  0  0  0
 13 14  1  0  0  0  0
 13 37  1  0  0  0  0
 13 38  1  0  0  0  0
 14 39  1  0  0  0  0
 14 40  1  0  0  0  0
 14 41  1  0  0  0  0
 15 16  1  0  0  0  0
 15 42  1  0  0  0  0
 15 43  1  0  0  0  0
 16 44  1  0  0  0  0
 16 45  1  0  0  0  0
 16 46  1  0  0  0  0
 17 18  1  0  0  0  0
 17 47  1  0  0  0  0
 17 48  1  0  0  0  0
 18 49  1  0  0  0  0
 18 50  1  0  0  0  0
 19 20  3  0  0  0  0
 20 21  1  0  0  0  0
 21 23  1  0  0  0  0
 21 51  1  0  0  0  0
 21 52  1  0  0  0  0
 22 26  1  0  0  0  0
 23 53  1  0  0  0  0
M  END
> <ConfScore>
-0.346441 

$$$$
4agn


 53 54  0  0  0  0  0  0  0  0999 V2000
   24.4330    4.1140    6.3520 N   0  3  0  1  0  4  0  0  0  0  0  0
   25.1964    0.4472    8.5037 N   0  3  0  1  0  4  0  0  0  0  0  0
   24.9565    7.9154    8.1786 C   0  0  0  1  0  3  0  0  0  0  0  0
   24.4177    6.5958    6.2164 C   0  0  0  1  0  3  0  0  0  0  0  0
   24.1608    8.9656    7.6922 C   0  0  0  1  0  3  0  0  0  0  0  0
   24.5480    5.2730    5.4500 C   0  0  0  1  0  4  0  0  0  0  0  0
   25.4840    4.1440    7.3870 C   0  0  0  1  0  4  0  0  0  0  0  0
   25.0816    6.7252    7.4371 C   0  0  0  1  0  3  0  0  0  0  0  0
   23.5049    8.7998    6.4563 C   0  0  0  1  0  3  0  0  0  0  0  0
   23.6042    7.6305    5.6926 C   0  0  0  1  0  3  0  0  0  0  0  0
   25.3250    2.9490    8.3330 C   0  0  0  1  0  4  0  0  0  0  0  0
   25.4480    1.6410    7.5540 C   0  0  0  1  0  4  0  0  0  0  0  0
   23.7684    0.2515    8.9985 C   0  0  0  1  0  4  0  0  0  0  0  0
   23.3274    1.3794    9.9199 C   0  0  0  1  0  4  0  0  0  0  0  0
   26.1977    0.4705    9.6765 C   0  0  0  1  0  4  0  0  0  0  0  0
   25.8794    1.6256   10.6115 C   0  0  0  1  0  4  0  0  0  0  0  0
   24.4130    1.6290    6.4330 C   0  0  0  1  0  4  0  0  0  0  0  0
   24.5460    2.8760    5.5510 C   0  0  0  1  0  4  0  0  0  0  0  0
   25.6673    8.0061    9.4149 C   0  0  0  1  0  2  0  0  0  0  0  0
   26.2675    8.0729   10.4512 C   0  0  0  1  0  2  0  0  0  0  0  0
   26.9988    8.1578   11.7167 C   0  0  0  1  0  4  0  0  0  0  0  0
   22.9871    7.4696    4.4868 O   0  0  0  1  0  2  0  0  0  0  0  0
   27.7159    6.9519   11.9528 O   0  0  0  1  0  2  0  0  0  0  0  0
   22.2640   10.3666    5.7220 I   0  0  0  1  0  1  0  0  0  0  0  0
   23.5397    4.1450    6.8182 H   0  0  0  1  0  1  0  0  0  0  0  0
   22.4845    8.2493    4.2825 H   0  0  0  1  0  1  0  0  0  0  0  0
   24.0540    9.8847    8.2560 H   0  0  0  1  0  1  0  0  0  0  0  0
   23.7511    5.2180    4.6939 H   0  0  0  1  0  1  0  0  0  0  0  0
   25.5287    5.2431    4.9527 H   0  0  0  1  0  1  0  0  0  0  0  0
   25.4067   -0.3769    7.9627 H   0  0  0  1  0  1  0  0  0  0  0  0
   25.4009    5.0775    7.9629 H   0  0  0  1  0  1  0  0  0  0  0  0
   26.4716    4.0970    6.9042 H   0  0  0  1  0  1  0  0  0  0  0  0
   25.6907    5.9114    7.8143 H   0  0  0  1  0  1  0  0  0  0  0  0
   24.3363    2.9945    8.8130 H   0  0  0  1  0  1  0  0  0  0  0  0
   26.1094    2.9884    9.1033 H   0  0  0  1  0  1  0  0  0  0  0  0
   26.4576    1.5618    7.1241 H   0  0  0  1  0  1  0  0  0  0  0  0
   23.7084   -0.6994    9.5471 H   0  0  0  1  0  1  0  0  0  0  0  0
   23.0930    0.2178    8.1305 H   0  0  0  1  0  1  0  0  0  0  0  0
   23.9920    1.4193   10.7944 H   0  0  0  1  0  1  0  0  0  0  0  0
   22.2944    1.1987   10.2518 H   0  0  0  1  0  1  0  0  0  0  0  0
   23.3758    2.3355    9.3785 H   0  0  0  1  0  1  0  0  0  0  0  0
   27.2182    0.5935    9.2821 H   0  0  0  1  0  1  0  0  0  0  0  0
   26.1305   -0.4757   10.2327 H   0  0  0  1  0  1  0  0  0  0  0  0
   24.8606    1.5056   11.0089 H   0  0  0  1  0  1  0  0  0  0  0  0
   25.9483    2.5735   10.0588 H   0  0  0  1  0  1  0  0  0  0  0  0
   26.5990    1.6326   11.4431 H   0  0  0  1  0  1  0  0  0  0  0  0
   23.4051    1.6057    6.8739 H   0  0  0  1  0  1  0  0  0  0  0  0
   24.5636    0.7326    5.8138 H   0  0  0  1  0  1  0  0  0  0  0  0
   25.5270    2.8597    5.0527 H   0  0  0  1  0  1  0  0  0  0  0  0
   23.7488    2.8655    4.7929 H   0  0  0  1  0  1  0  0  0  0  0  0
   26.2861    8.3229   12.5377 H   0  0  0  1  0  1  0  0  0  0  0  0
   27.7071    8.9987   11.6709 H   0  0  0  1  0  1  0  0  0  0  0  0
   28.1852    7.0201   12.7759 H   0  0  0  1  0  1  0  0  0  0  0  0
  1  6  1  0  0  0  0
  1  7  1  0  0  0  0
  1 18  1  0  0  0  0
  1 25  1  0  0  0  0
  2 12  1  0  0  0  0
  2 13  1  0  0  0  0
  2 15  1  0  0  0  0
  2 30  1  0  0  0  0
  3  5  2  0  0  0  0
  3  8  1  0  0  0  0
  3 19  1  0  0  0  0
  4  6  1  0  0  0  0
  4  8  2  0  0  0  0
  4 10  1  0  0  0  0
  5  9  1  0  0  0  0
  5 27  1  0  0  0  0
  6 28  1  0  0  0  0
  6 29  1  0  0  0  0
  7 11  1  0  0  0  0
  7 31  1  0  0  0  0
  7 32  1  0  0  0  0
  8 33  1  0  0  0  0
  9 10  2  0  0  0  0
  9 24  1  0  0  0  0
 10 22  1  0  0  0  0
 11 12  1  0  0  0  0
 11 34  1  0  0  0  0
 11 35  1  0  0  0  0
 12 17  1  0  0  0  0
 12 36  1  0  0  0  0
 13 14  1  0  0  0  0
 13 37  1  0  0  0  0
 13 38  1  0  0  0  0
 14 39  1  0  0  0  0
 14 40  1  0  0  0  0
 14 41  1  0  0  0  0
 15 16  1  0  0  0  0
 15 42  1  0  0  0  0
 15 43  1  0  0  0  0
 16 44  1  0  0  0  0
 16 45  1  0  0  0  0
 16 46  1  0  0  0  0
 17 18  1  0  0  0  0
 17 47  1  0  0  0  0
 17 48  1  0  0  0  0
 18 49  1  0  0  0  0
 18 50  1  0  0  0  0
 19 20  3  0  0  0  0
 20 21  1  0  0  0  0
 21 23  1  0  0  0  0
 21 51  1  0  0  0  0
 21 52  1  0  0  0  0
 22 26  1  0  0  0  0
 23 53  1  0  0  0  0
M  END
> <ConfScore>
-0.344044 

$$$$
4agn


 53 54  0  0  0  0  0  0  0  0999 V2000
   90.4980   98.3810  -44.6910 N   0  3  0  1  0  4  0  0  0  0  0  0
   92.0509  102.3792  -44.2366 N   0  3  0  1  0  4  0  0  0  0  0  0
   91.0562   93.5609  -45.1084 C   0  0  0  1  0  3  0  0  0  0  0  0
   90.4953   95.8979  -44.7834 C   0  0  0  1  0  3  0  0  0  0  0  0
   91.5232   93.4879  -43.7859 C   0  0  0  1  0  3  0  0  0  0  0  0
   89.9050   97.1660  -45.3350 C   0  0  0  1  0  4  0  0  0  0  0  0
   89.5430   99.5450  -44.7170 C   0  0  0  1  0  4  0  0  0  0  0  0
   90.5377   94.7714  -45.6062 C   0  0  0  1  0  3  0  0  0  0  0  0
   91.4647   94.6449  -42.9838 C   0  0  0  1  0  3  0  0  0  0  0  0
   90.9542   95.8648  -43.4436 C   0  0  0  1  0  3  0  0  0  0  0  0
   90.1750  100.7310  -44.0050 C   0  0  0  1  0  4  0  0  0  0  0  0
   91.4300  101.0810  -44.8020 C   0  0  0  1  0  4  0  0  0  0  0  0
   93.2367  102.9616  -44.9963 C   0  0  0  1  0  4  0  0  0  0  0  0
   93.2754  102.4840  -46.4405 C   0  0  0  1  0  4  0  0  0  0  0  0
   92.3718  102.2152  -42.7371 C   0  0  0  1  0  4  0  0  0  0  0  0
   91.1561  101.6797  -41.9988 C   0  0  0  1  0  4  0  0  0  0  0  0
   92.4510   99.9400  -44.6950 C   0  0  0  1  0  4  0  0  0  0  0  0
   91.8210   98.7070  -45.3220 C   0  0  0  1  0  4  0  0  0  0  0  0
   91.0927   92.4396  -45.9933 C   0  0  0  1  0  2  0  0  0  0  0  0
   91.1191   91.5040  -46.7435 C   0  0  0  1  0  2  0  0  0  0  0  0
   91.1529   90.3600  -47.6565 C   0  0  0  1  0  4  0  0  0  0  0  0
   90.9110   96.9938  -42.6792 O   0  0  0  1  0  2  0  0  0  0  0  0
   90.6176   90.7250  -48.9232 O   0  0  0  1  0  2  0  0  0  0  0  0
   92.1329   94.5424  -40.9647 I   0  0  0  1  0  1  0  0  0  0  0  0
   90.6653   98.1804  -43.7174 H   0  0  0  1  0  1  0  0  0  0  0  0
   91.2529   96.8026  -41.8138 H   0  0  0  1  0  1  0  0  0  0  0  0
   91.9208   92.5607  -43.3907 H   0  0  0  1  0  1  0  0  0  0  0  0
   90.0974   97.2069  -46.4172 H   0  0  0  1  0  1  0  0  0  0  0  0
   88.8199   97.1614  -45.1549 H   0  0  0  1  0  1  0  0  0  0  0  0
   91.3249  103.0755  -44.3006 H   0  0  0  1  0  1  0  0  0  0  0  0
   88.6095   99.2654  -44.2068 H   0  0  0  1  0  1  0  0  0  0  0  0
   89.3241   99.8172  -45.7604 H   0  0  0  1  0  1  0  0  0  0  0  0
   90.1712   94.8275  -46.6251 H   0  0  0  1  0  1  0  0  0  0  0  0
   90.4413  100.4593  -42.9728 H   0  0  0  1  0  1  0  0  0  0  0  0
   89.4801  101.5838  -43.9926 H   0  0  0  1  0  1  0  0  0  0  0  0
   91.1611  101.2321  -45.8581 H   0  0  0  1  0  1  0  0  0  0  0  0
   94.1662  102.6549  -44.4956 H   0  0  0  1  0  1  0  0  0  0  0  0
   93.1599  104.0592  -44.9875 H   0  0  0  1  0  1  0  0  0  0  0  0
   94.1428  102.9267  -46.9499 H   0  0  0  1  0  1  0  0  0  0  0  0
   92.3522  102.7917  -46.9531 H   0  0  0  1  0  1  0  0  0  0  0  0
   93.3578  101.3874  -46.4621 H   0  0  0  1  0  1  0  0  0  0  0  0
   92.6511  103.1930  -42.3151 H   0  0  0  1  0  1  0  0  0  0  0  0
   93.2081  101.5113  -42.6176 H   0  0  0  1  0  1  0  0  0  0  0  0
   91.4014  101.5497  -40.9344 H   0  0  0  1  0  1  0  0  0  0  0  0
   90.8640  100.7110  -42.4290 H   0  0  0  1  0  1  0  0  0  0  0  0
   90.3238  102.3916  -42.0991 H   0  0  0  1  0  1  0  0  0  0  0  0
   92.6879   99.7452  -43.6383 H   0  0  0  1  0  1  0  0  0  0  0  0
   93.3715  100.2074  -45.2344 H   0  0  0  1  0  1  0  0  0  0  0  0
   91.6686   98.8910  -46.3962 H   0  0  0  1  0  1  0  0  0  0  0  0
   92.5004   97.8520  -45.1886 H   0  0  0  1  0  1  0  0  0  0  0  0
   90.5557   89.5395  -47.2330 H   0  0  0  1  0  1  0  0  0  0  0  0
   92.1942   90.0280  -47.7841 H   0  0  0  1  0  1  0  0  0  0  0  0
   90.6452   89.9747  -49.5052 H   0  0  0  1  0  1  0  0  0  0  0  0
  1  6  1  0  0  0  0
  1  7  1  0  0  0  0
  1 18  1  0  0  0  0
  1 25  1  0  0  0  0
  2 12  1  0  0  0  0
  2 13  1  0  0  0  0
  2 15  1  0  0  0  0
  2 30  1  0  0  0  0
  3  5  2  0  0  0  0
  3  8  1  0  0  0  0
  3 19  1  0  0  0  0
  4  6  1  0  0  0  0
  4  8  2  0  0  0  0
  4 10  1  0  0  0  0
  5  9  1  0  0  0  0
  5 27  1  0  0  0  0
  6 28  1  0  0  0  0
  6 29  1  0  0  0  0
  7 11  1  0  0  0  0
  7 31  1  0  0  0  0
  7 32  1  0  0  0  0
  8 33  1  0  0  0  0
  9 10  2  0  0  0  0
  9 24  1  0  0  0  0
 10 22  1  0  0  0  0
 11 12  1  0  0  0  0
 11 34  1  0  0  0  0
 11 35  1  0  0  0  0
 12 17  1  0  0  0  0
 12 36  1  0  0  0  0
 13 14  1  0  0  0  0
 13 37  1  0  0  0  0
 13 38  1  0  0  0  0
 14 39  1  0  0  0  0
 14 40  1  0  0  0  0
 14 41  1  0  0  0  0
 15 16  1  0  0  0  0
 15 42  1  0  0  0  0
 15 43  1  0  0  0  0
 16 44  1  0  0  0  0
 16 45  1  0  0  0  0
 16 46  1  0  0  0  0
 17 18  1  0  0  0  0
 17 47  1  0  0  0  0
 17 48  1  0  0  0  0
 18 49  1  0  0  0  0
 18 50  1  0  0  0  0
 19 20  3  0  0  0  0
 20 21  1  0  0  0  0
 21 23  1  0  0  0  0
 21 51  1  0  0  0  0
 21 52  1  0  0  0  0
 22 26  1  0  0  0  0
 23 53  1  0  0  0  0
M  END
> <ConfScore>
-0.337691 

$$$$
4agn


 53 54  0  0  0  0  0  0  0  0999 V2000
   90.4980   98.3810  -44.6910 N   0  3  0  1  0  4  0  0  0  0  0  0
   92.0509  102.3792  -44.2366 N   0  3  0  1  0  4  0  0  0  0  0  0
   91.0562   93.5609  -45.1084 C   0  0  0  1  0  3  0  0  0  0  0  0
   90.4953   95.8979  -44.7834 C   0  0  0  1  0  3  0  0  0  0  0  0
   91.5232   93.4879  -43.7859 C   0  0  0  1  0  3  0  0  0  0  0  0
   89.9050   97.1660  -45.3350 C   0  0  0  1  0  4  0  0  0  0  0  0
   89.5430   99.5450  -44.7170 C   0  0  0  1  0  4  0  0  0  0  0  0
   90.5377   94.7714  -45.6062 C   0  0  0  1  0  3  0  0  0  0  0  0
   91.4647   94.6449  -42.9838 C   0  0  0  1  0  3  0  0  0  0  0  0
   90.9542   95.8648  -43.4436 C   0  0  0  1  0  3  0  0  0  0  0  0
   90.1750  100.7310  -44.0050 C   0  0  0  1  0  4  0  0  0  0  0  0
   91.4300  101.0810  -44.8020 C   0  0  0  1  0  4  0  0  0  0  0  0
   93.2367  102.9616  -44.9963 C   0  0  0  1  0  4  0  0  0  0  0  0
   93.2754  102.4840  -46.4405 C   0  0  0  1  0  4  0  0  0  0  0  0
   92.3718  102.2152  -42.7371 C   0  0  0  1  0  4  0  0  0  0  0  0
   91.1561  101.6797  -41.9988 C   0  0  0  1  0  4  0  0  0  0  0  0
   92.4510   99.9400  -44.6950 C   0  0  0  1  0  4  0  0  0  0  0  0
   91.8210   98.7070  -45.3220 C   0  0  0  1  0  4  0  0  0  0  0  0
   91.0927   92.4396  -45.9933 C   0  0  0  1  0  2  0  0  0  0  0  0
   91.1274   91.4926  -46.7288 C   0  0  0  1  0  2  0  0  0  0  0  0
   91.1683   90.3389  -47.6291 C   0  0  0  1  0  4  0  0  0  0  0  0
   90.9110   96.9938  -42.6792 O   0  0  0  1  0  2  0  0  0  0  0  0
   91.7193   89.2110  -46.9593 O   0  0  0  1  0  2  0  0  0  0  0  0
   92.1329   94.5424  -40.9647 I   0  0  0  1  0  1  0  0  0  0  0  0
   90.6653   98.1804  -43.7174 H   0  0  0  1  0  1  0  0  0  0  0  0
   91.2529   96.8026  -41.8138 H   0  0  0  1  0  1  0  0  0  0  0  0
   91.9208   92.5607  -43.3907 H   0  0  0  1  0  1  0  0  0  0  0  0
   90.0974   97.2069  -46.4172 H   0  0  0  1  0  1  0  0  0  0  0  0
   88.8199   97.1614  -45.1549 H   0  0  0  1  0  1  0  0  0  0  0  0
   91.3249  103.0755  -44.3006 H   0  0  0  1  0  1  0  0  0  0  0  0
   88.6095   99.2654  -44.2068 H   0  0  0  1  0  1  0  0  0  0  0  0
   89.3241   99.8172  -45.7604 H   0  0  0  1  0  1  0  0  0  0  0  0
   90.1712   94.8275  -46.6251 H   0  0  0  1  0  1  0  0  0  0  0  0
   90.4413  100.4593  -42.9728 H   0  0  0  1  0  1  0  0  0  0  0  0
   89.4801  101.5838  -43.9926 H   0  0  0  1  0  1  0  0  0  0  0  0
   91.1611  101.2321  -45.8581 H   0  0  0  1  0  1  0  0  0  0  0  0
   94.1662  102.6549  -44.4956 H   0  0  0  1  0  1  0  0  0  0  0  0
   93.1599  104.0592  -44.9875 H   0  0  0  1  0  1  0  0  0  0  0  0
   94.1428  102.9267  -46.9499 H   0  0  0  1  0  1  0  0  0  0  0  0
   92.3522  102.7917  -46.9531 H   0  0  0  1  0  1  0  0  0  0  0  0
   93.3578  101.3874  -46.4621 H   0  0  0  1  0  1  0  0  0  0  0  0
   92.6511  103.1930  -42.3151 H   0  0  0  1  0  1  0  0  0  0  0  0
   93.2081  101.5113  -42.6176 H   0  0  0  1  0  1  0  0  0  0  0  0
   91.4014  101.5497  -40.9344 H   0  0  0  1  0  1  0  0  0  0  0  0
   90.8640  100.7110  -42.4290 H   0  0  0  1  0  1  0  0  0  0  0  0
   90.3238  102.3916  -42.0991 H   0  0  0  1  0  1  0  0  0  0  0  0
   92.6879   99.7452  -43.6383 H   0  0  0  1  0  1  0  0  0  0  0  0
   93.3715  100.2074  -45.2344 H   0  0  0  1  0  1  0  0  0  0  0  0
   91.6686   98.8910  -46.3962 H   0  0  0  1  0  1  0  0  0  0  0  0
   92.5004   97.8520  -45.1886 H   0  0  0  1  0  1  0  0  0  0  0  0
   91.7903   90.5817  -48.5028 H   0  0  0  1  0  1  0  0  0  0  0  0
   90.1464   90.1009  -47.9609 H   0  0  0  1  0  1  0  0  0  0  0  0
   91.7402   88.4704  -47.5539 H   0  0  0  1  0  1  0  0  0  0  0  0
  1  6  1  0  0  0  0
  1  7  1  0  0  0  0
  1 18  1  0  0  0  0
  1 25  1  0  0  0  0
  2 12  1  0  0  0  0
  2 13  1  0  0  0  0
  2 15  1  0  0  0  0
  2 30  1  0  0  0  0
  3  5  2  0  0  0  0
  3  8  1  0  0  0  0
  3 19  1  0  0  0  0
  4  6  1  0  0  0  0
  4  8  2  0  0  0  0
  4 10  1  0  0  0  0
  5  9  1  0  0  0  0
  5 27  1  0  0  0  0
  6 28  1  0  0  0  0
  6 29  1  0  0  0  0
  7 11  1  0  0  0  0
  7 31  1  0  0  0  0
  7 32  1  0  0  0  0
  8 33  1  0  0  0  0
  9 10  2  0  0  0  0
  9 24  1  0  0  0  0
 10 22  1  0  0  0  0
 11 12  1  0  0  0  0
 11 34  1  0  0  0  0
 11 35  1  0  0  0  0
 12 17  1  0  0  0  0
 12 36  1  0  0  0  0
 13 14  1  0  0  0  0
 13 37  1  0  0  0  0
 13 38  1  0  0  0  0
 14 39  1  0  0  0  0
 14 40  1  0  0  0  0
 14 41  1  0  0  0  0
 15 16  1  0  0  0  0
 15 42  1  0  0  0  0
 15 43  1  0  0  0  0
 16 44  1  0  0  0  0
 16 45  1  0  0  0  0
 16 46  1  0  0  0  0
 17 18  1  0  0  0  0
 17 47  1  0  0  0  0
 17 48  1  0  0  0  0
 18 49  1  0  0  0  0
 18 50  1  0  0  0  0
 19 20  3  0  0  0  0
 20 21  1  0  0  0  0
 21 23  1  0  0  0  0
 21 51  1  0  0  0  0
 21 52  1  0  0  0  0
 22 26  1  0  0  0  0
 23 53  1  0  0  0  0
M  END
> <ConfScore>
-0.337691 

$$$$
4agn


 53 54  0  0  0  0  0  0  0  0999 V2000
   24.4330    4.1140    6.3520 N   0  3  0  1  0  4  0  0  0  0  0  0
   25.1964    0.4472    8.5037 N   0  3  0  1  0  4  0  0  0  0  0  0
   26.9358    3.6490    2.9490 C   0  0  0  1  0  3  0  0  0  0  0  0
   25.7008    5.0962    4.4531 C   0  0  0  1  0  3  0  0  0  0  0  0
   27.8306    4.6962    2.6743 C   0  0  0  1  0  3  0  0  0  0  0  0
   24.5480    5.2730    5.4500 C   0  0  0  1  0  4  0  0  0  0  0  0
   25.4840    4.1440    7.3870 C   0  0  0  1  0  4  0  0  0  0  0  0
   25.8688    3.8514    3.8448 C   0  0  0  1  0  3  0  0  0  0  0  0
   27.6304    5.9393    3.3067 C   0  0  0  1  0  3  0  0  0  0  0  0
   26.5824    6.1767    4.2043 C   0  0  0  1  0  3  0  0  0  0  0  0
   25.3250    2.9490    8.3330 C   0  0  0  1  0  4  0  0  0  0  0  0
   25.4480    1.6410    7.5540 C   0  0  0  1  0  4  0  0  0  0  0  0
   23.7684    0.2515    8.9985 C   0  0  0  1  0  4  0  0  0  0  0  0
   23.3274    1.3794    9.9199 C   0  0  0  1  0  4  0  0  0  0  0  0
   26.1977    0.4705    9.6765 C   0  0  0  1  0  4  0  0  0  0  0  0
   25.8794    1.6256   10.6115 C   0  0  0  1  0  4  0  0  0  0  0  0
   24.4130    1.6290    6.4330 C   0  0  0  1  0  4  0  0  0  0  0  0
   24.5460    2.8760    5.5510 C   0  0  0  1  0  4  0  0  0  0  0  0
   27.0575    2.3621    2.3400 C   0  0  0  1  0  2  0  0  0  0  0  0
   27.1514    1.2787    1.8338 C   0  0  0  1  0  2  0  0  0  0  0  0
   27.2689   -0.0425    1.2143 C   0  0  0  1  0  4  0  0  0  0  0  0
   26.3714    7.3824    4.8063 O   0  0  0  1  0  2  0  0  0  0  0  0
   26.2303   -0.8977    1.6773 O   0  0  0  1  0  2  0  0  0  0  0  0
   28.9993    7.5265    2.9314 I   0  0  0  1  0  1  0  0  0  0  0  0
   23.5397    4.1450    6.8182 H   0  0  0  1  0  1  0  0  0  0  0  0
   27.0464    7.9933    4.5353 H   0  0  0  1  0  1  0  0  0  0  0  0
   28.6576    4.5510    1.9895 H   0  0  0  1  0  1  0  0  0  0  0  0
   24.7300    6.1765    6.0503 H   0  0  0  1  0  1  0  0  0  0  0  0
   23.6069    5.3864    4.8919 H   0  0  0  1  0  1  0  0  0  0  0  0
   25.4067   -0.3769    7.9627 H   0  0  0  1  0  1  0  0  0  0  0  0
   25.4009    5.0775    7.9629 H   0  0  0  1  0  1  0  0  0  0  0  0
   26.4716    4.0970    6.9042 H   0  0  0  1  0  1  0  0  0  0  0  0
   25.1810    3.0420    4.0625 H   0  0  0  1  0  1  0  0  0  0  0  0
   24.3363    2.9945    8.8130 H   0  0  0  1  0  1  0  0  0  0  0  0
   26.1094    2.9884    9.1033 H   0  0  0  1  0  1  0  0  0  0  0  0
   26.4576    1.5618    7.1241 H   0  0  0  1  0  1  0  0  0  0  0  0
   23.7084   -0.6994    9.5471 H   0  0  0  1  0  1  0  0  0  0  0  0
   23.0930    0.2178    8.1305 H   0  0  0  1  0  1  0  0  0  0  0  0
   23.9920    1.4193   10.7944 H   0  0  0  1  0  1  0  0  0  0  0  0
   22.2944    1.1987   10.2518 H   0  0  0  1  0  1  0  0  0  0  0  0
   23.3758    2.3355    9.3785 H   0  0  0  1  0  1  0  0  0  0  0  0
   27.2182    0.5935    9.2821 H   0  0  0  1  0  1  0  0  0  0  0  0
   26.1305   -0.4757   10.2327 H   0  0  0  1  0  1  0  0  0  0  0  0
   24.8606    1.5056   11.0089 H   0  0  0  1  0  1  0  0  0  0  0  0
   25.9483    2.5735   10.0588 H   0  0  0  1  0  1  0  0  0  0  0  0
   26.5990    1.6326   11.4431 H   0  0  0  1  0  1  0  0  0  0  0  0
   23.4051    1.6057    6.8739 H   0  0  0  1  0  1  0  0  0  0  0  0
   24.5636    0.7326    5.8138 H   0  0  0  1  0  1  0  0  0  0  0  0
   25.5270    2.8597    5.0527 H   0  0  0  1  0  1  0  0  0  0  0  0
   23.7488    2.8655    4.7929 H   0  0  0  1  0  1  0  0  0  0  0  0
   28.2431   -0.4808    1.4752 H   0  0  0  1  0  1  0  0  0  0  0  0
   27.1941    0.0611    0.1213 H   0  0  0  1  0  1  0  0  0  0  0  0
   26.3182   -1.7505    1.2683 H   0  0  0  1  0  1  0  0  0  0  0  0
  1  6  1  0  0  0  0
  1  7  1  0  0  0  0
  1 18  1  0  0  0  0
  1 25  1  0  0  0  0
  2 12  1  0  0  0  0
  2 13  1  0  0  0  0
  2 15  1  0  0  0  0
  2 30  1  0  0  0  0
  3  5  2  0  0  0  0
  3  8  1  0  0  0  0
  3 19  1  0  0  0  0
  4  6  1  0  0  0  0
  4  8  2  0  0  0  0
  4 10  1  0  0  0  0
  5  9  1  0  0  0  0
  5 27  1  0  0  0  0
  6 28  1  0  0  0  0
  6 29  1  0  0  0  0
  7 11  1  0  0  0  0
  7 31  1  0  0  0  0
  7 32  1  0  0  0  0
  8 33  1  0  0  0  0
  9 10  2  0  0  0  0
  9 24  1  0  0  0  0
 10 22  1  0  0  0  0
 11 12  1  0  0  0  0
 11 34  1  0  0  0  0
 11 35  1  0  0  0  0
 12 17  1  0  0  0  0
 12 36  1  0  0  0  0
 13 14  1  0  0  0  0
 13 37  1  0  0  0  0
 13 38  1  0  0  0  0
 14 39  1  0  0  0  0
 14 40  1  0  0  0  0
 14 41  1  0  0  0  0
 15 16  1  0  0  0  0
 15 42  1  0  0  0  0
 15 43  1  0  0  0  0
 16 44  1  0  0  0  0
 16 45  1  0  0  0  0
 16 46  1  0  0  0  0
 17 18  1  0  0  0  0
 17 47  1  0  0  0  0
 17 48  1  0  0  0  0
 18 49  1  0  0  0  0
 18 50  1  0  0  0  0
 19 20  3  0  0  0  0
 20 21  1  0  0  0  0
 21 23  1  0  0  0  0
 21 51  1  0  0  0  0
 21 52  1  0  0  0  0
 22 26  1  0  0  0  0
 23 53  1  0  0  0  0
M  END
> <ConfScore>
-0.331416 

$$$$
4agn


 53 54  0  0  0  0  0  0  0  0999 V2000
   24.4330    4.1140    6.3520 N   0  3  0  1  0  4  0  0  0  0  0  0
   25.1964    0.4472    8.5037 N   0  3  0  1  0  4  0  0  0  0  0  0
   22.0306    6.5042    2.8620 C   0  0  0  1  0  3  0  0  0  0  0  0
   23.2167    5.5840    4.7667 C   0  0  0  1  0  3  0  0  0  0  0  0
   20.8054    6.2383    3.4951 C   0  0  0  1  0  3  0  0  0  0  0  0
   24.5480    5.2730    5.4500 C   0  0  0  1  0  4  0  0  0  0  0  0
   25.4840    4.1440    7.3870 C   0  0  0  1  0  4  0  0  0  0  0  0
   23.2402    6.1775    3.5038 C   0  0  0  1  0  3  0  0  0  0  0  0
   20.8198    5.6386    4.7700 C   0  0  0  1  0  3  0  0  0  0  0  0
   22.0025    5.3017    5.4395 C   0  0  0  1  0  3  0  0  0  0  0  0
   25.3250    2.9490    8.3330 C   0  0  0  1  0  4  0  0  0  0  0  0
   25.4480    1.6410    7.5540 C   0  0  0  1  0  4  0  0  0  0  0  0
   26.0654    0.3676    9.7531 C   0  0  0  1  0  4  0  0  0  0  0  0
   25.2702   -0.0827   10.9698 C   0  0  0  1  0  4  0  0  0  0  0  0
   25.2197   -0.8805    7.7193 C   0  0  0  1  0  4  0  0  0  0  0  0
   24.7060   -2.0123    8.5938 C   0  0  0  1  0  4  0  0  0  0  0  0
   24.4130    1.6290    6.4330 C   0  0  0  1  0  4  0  0  0  0  0  0
   24.5460    2.8760    5.5510 C   0  0  0  1  0  4  0  0  0  0  0  0
   22.1058    7.0964    1.5638 C   0  0  0  1  0  2  0  0  0  0  0  0
   22.1790    7.5930    0.4744 C   0  0  0  1  0  2  0  0  0  0  0  0
   22.2648    8.1994   -0.8554 C   0  0  0  1  0  4  0  0  0  0  0  0
   22.0242    4.7044    6.6656 O   0  0  0  1  0  2  0  0  0  0  0  0
   23.6260    8.3496   -1.2412 O   0  0  0  1  0  2  0  0  0  0  0  0
   18.9729    5.2632    5.7609 I   0  0  0  1  0  1  0  0  0  0  0  0
   23.5397    4.1450    6.8182 H   0  0  0  1  0  1  0  0  0  0  0  0
   21.1341    4.5864    6.9754 H   0  0  0  1  0  1  0  0  0  0  0  0
   19.8682    6.4889    3.0125 H   0  0  0  1  0  1  0  0  0  0  0  0
   25.3022    5.0533    4.6801 H   0  0  0  1  0  1  0  0  0  0  0  0
   24.8638    6.1503    6.0336 H   0  0  0  1  0  1  0  0  0  0  0  0
   24.2539    0.5650    8.8412 H   0  0  0  1  0  1  0  0  0  0  0  0
   25.4009    5.0775    7.9629 H   0  0  0  1  0  1  0  0  0  0  0  0
   26.4716    4.0970    6.9042 H   0  0  0  1  0  1  0  0  0  0  0  0
   24.1868    6.3878    3.0189 H   0  0  0  1  0  1  0  0  0  0  0  0
   24.3363    2.9945    8.8130 H   0  0  0  1  0  1  0  0  0  0  0  0
   26.1094    2.9884    9.1033 H   0  0  0  1  0  1  0  0  0  0  0  0
   26.4576    1.5618    7.1241 H   0  0  0  1  0  1  0  0  0  0  0  0
   26.4914    1.3609    9.9548 H   0  0  0  1  0  1  0  0  0  0  0  0
   26.8790   -0.3514    9.5748 H   0  0  0  1  0  1  0  0  0  0  0  0
   24.4679    0.6408   11.1716 H   0  0  0  1  0  1  0  0  0  0  0  0
   25.9378   -0.1434   11.8418 H   0  0  0  1  0  1  0  0  0  0  0  0
   24.8313   -1.0723   10.7754 H   0  0  0  1  0  1  0  0  0  0  0  0
   26.2523   -1.1020    7.4084 H   0  0  0  1  0  1  0  0  0  0  0  0
   24.5797   -0.7901    6.8296 H   0  0  0  1  0  1  0  0  0  0  0  0
   24.7100   -2.9504    8.0192 H   0  0  0  1  0  1  0  0  0  0  0  0
   23.6807   -1.7864    8.9201 H   0  0  0  1  0  1  0  0  0  0  0  0
   25.3562   -2.1188    9.4743 H   0  0  0  1  0  1  0  0  0  0  0  0
   23.4051    1.6057    6.8739 H   0  0  0  1  0  1  0  0  0  0  0  0
   24.5636    0.7326    5.8138 H   0  0  0  1  0  1  0  0  0  0  0  0
   25.5270    2.8597    5.0527 H   0  0  0  1  0  1  0  0  0  0  0  0
   23.7488    2.8655    4.7929 H   0  0  0  1  0  1  0  0  0  0  0  0
   21.7819    9.1872   -0.8361 H   0  0  0  1  0  1  0  0  0  0  0  0
   21.7502    7.5536   -1.5827 H   0  0  0  1  0  1  0  0  0  0  0  0
   23.6674    8.7437   -2.1045 H   0  0  0  1  0  1  0  0  0  0  0  0
  1  6  1  0  0  0  0
  1  7  1  0  0  0  0
  1 18  1  0  0  0  0
  1 25  1  0  0  0  0
  2 12  1  0  0  0  0
  2 13  1  0  0  0  0
  2 15  1  0  0  0  0
  2 30  1  0  0  0  0
  3  5  2  0  0  0  0
  3  8  1  0  0  0  0
  3 19  1  0  0  0  0
  4  6  1  0  0  0  0
  4  8  2  0  0  0  0
  4 10  1  0  0  0  0
  5  9  1  0  0  0  0
  5 27  1  0  0  0  0
  6 28  1  0  0  0  0
  6 29  1  0  0  0  0
  7 11  1  0  0  0  0
  7 31  1  0  0  0  0
  7 32  1  0  0  0  0
  8 33  1  0  0  0  0
  9 10  2  0  0  0  0
  9 24  1  0  0  0  0
 10 22  1  0  0  0  0
 11 12  1  0  0  0  0
 11 34  1  0  0  0  0
 11 35  1  0  0  0  0
 12 17  1  0  0  0  0
 12 36  1  0  0  0  0
 13 14  1  0  0  0  0
 13 37  1  0  0  0  0
 13 38  1  0  0  0  0
 14 39  1  0  0  0  0
 14 40  1  0  0  0  0
 14 41  1  0  0  0  0
 15 16  1  0  0  0  0
 15 42  1  0  0  0  0
 15 43  1  0  0  0  0
 16 44  1  0  0  0  0
 16 45  1  0  0  0  0
 16 46  1  0  0  0  0
 17 18  1  0  0  0  0
 17 47  1  0  0  0  0
 17 48  1  0  0  0  0
 18 49  1  0  0  0  0
 18 50  1  0  0  0  0
 19 20  3  0  0  0  0
 20 21  1  0  0  0  0
 21 23  1  0  0  0  0
 21 51  1  0  0  0  0
 21 52  1  0  0  0  0
 22 26  1  0  0  0  0
 23 53  1  0  0  0  0
M  END
> <ConfScore>
-0.32954 

$$$$
4agn


 53 54  0  0  0  0  0  0  0  0999 V2000
   90.4980   98.3810  -44.6910 N   0  3  0  1  0  4  0  0  0  0  0  0
   92.0509  102.3792  -44.2366 N   0  3  0  1  0  4  0  0  0  0  0  0
   91.0562   93.5609  -45.1084 C   0  0  0  1  0  3  0  0  0  0  0  0
   90.4953   95.8979  -44.7834 C   0  0  0  1  0  3  0  0  0  0  0  0
   91.5232   93.4879  -43.7859 C   0  0  0  1  0  3  0  0  0  0  0  0
   89.9050   97.1660  -45.3350 C   0  0  0  1  0  4  0  0  0  0  0  0
   89.5430   99.5450  -44.7170 C   0  0  0  1  0  4  0  0  0  0  0  0
   90.5377   94.7714  -45.6062 C   0  0  0  1  0  3  0  0  0  0  0  0
   91.4647   94.6449  -42.9838 C   0  0  0  1  0  3  0  0  0  0  0  0
   90.9542   95.8648  -43.4436 C   0  0  0  1  0  3  0  0  0  0  0  0
   90.1750  100.7310  -44.0050 C   0  0  0  1  0  4  0  0  0  0  0  0
   91.4300  101.0810  -44.8020 C   0  0  0  1  0  4  0  0  0  0  0  0
   91.1600  103.6155  -44.2171 C   0  0  0  1  0  4  0  0  0  0  0  0
   89.9151  103.4045  -43.3679 C   0  0  0  1  0  4  0  0  0  0  0  0
   93.4022  102.6729  -44.9196 C   0  0  0  1  0  4  0  0  0  0  0  0
   93.1970  103.6029  -46.1040 C   0  0  0  1  0  4  0  0  0  0  0  0
   92.4510   99.9400  -44.6950 C   0  0  0  1  0  4  0  0  0  0  0  0
   91.8210   98.7070  -45.3220 C   0  0  0  1  0  4  0  0  0  0  0  0
   91.0927   92.4396  -45.9933 C   0  0  0  1  0  2  0  0  0  0  0  0
   91.1191   91.5040  -46.7435 C   0  0  0  1  0  2  0  0  0  0  0  0
   91.1529   90.3600  -47.6565 C   0  0  0  1  0  4  0  0  0  0  0  0
   90.9110   96.9938  -42.6792 O   0  0  0  1  0  2  0  0  0  0  0  0
   90.6176   90.7250  -48.9232 O   0  0  0  1  0  2  0  0  0  0  0  0
   92.1329   94.5424  -40.9647 I   0  0  0  1  0  1  0  0  0  0  0  0
   90.6653   98.1804  -43.7174 H   0  0  0  1  0  1  0  0  0  0  0  0
   91.2529   96.8026  -41.8138 H   0  0  0  1  0  1  0  0  0  0  0  0
   91.9208   92.5607  -43.3907 H   0  0  0  1  0  1  0  0  0  0  0  0
   90.0974   97.2069  -46.4172 H   0  0  0  1  0  1  0  0  0  0  0  0
   88.8199   97.1614  -45.1549 H   0  0  0  1  0  1  0  0  0  0  0  0
   92.2547  102.1818  -43.2695 H   0  0  0  1  0  1  0  0  0  0  0  0
   88.6095   99.2654  -44.2068 H   0  0  0  1  0  1  0  0  0  0  0  0
   89.3241   99.8172  -45.7604 H   0  0  0  1  0  1  0  0  0  0  0  0
   90.1712   94.8275  -46.6251 H   0  0  0  1  0  1  0  0  0  0  0  0
   90.4413  100.4593  -42.9728 H   0  0  0  1  0  1  0  0  0  0  0  0
   89.4801  101.5838  -43.9926 H   0  0  0  1  0  1  0  0  0  0  0  0
   91.1611  101.2321  -45.8581 H   0  0  0  1  0  1  0  0  0  0  0  0
   90.8525  103.8495  -45.2464 H   0  0  0  1  0  1  0  0  0  0  0  0
   91.7324  104.4595  -43.8041 H   0  0  0  1  0  1  0  0  0  0  0  0
   89.3033  104.3174  -43.3812 H   0  0  0  1  0  1  0  0  0  0  0  0
   90.2114  103.1761  -42.3336 H   0  0  0  1  0  1  0  0  0  0  0  0
   89.3313  102.5658  -43.7749 H   0  0  0  1  0  1  0  0  0  0  0  0
   93.8451  101.7286  -45.2721 H   0  0  0  1  0  1  0  0  0  0  0  0
   94.0804  103.1495  -44.1971 H   0  0  0  1  0  1  0  0  0  0  0  0
   92.7388  104.5413  -45.7582 H   0  0  0  1  0  1  0  0  0  0  0  0
   92.5357  103.1204  -46.8379 H   0  0  0  1  0  1  0  0  0  0  0  0
   94.1683  103.8196  -46.5720 H   0  0  0  1  0  1  0  0  0  0  0  0
   92.6879   99.7452  -43.6383 H   0  0  0  1  0  1  0  0  0  0  0  0
   93.3715  100.2074  -45.2344 H   0  0  0  1  0  1  0  0  0  0  0  0
   91.6686   98.8910  -46.3962 H   0  0  0  1  0  1  0  0  0  0  0  0
   92.5004   97.8520  -45.1886 H   0  0  0  1  0  1  0  0  0  0  0  0
   90.5557   89.5395  -47.2330 H   0  0  0  1  0  1  0  0  0  0  0  0
   92.1942   90.0280  -47.7841 H   0  0  0  1  0  1  0  0  0  0  0  0
   90.6452   89.9747  -49.5052 H   0  0  0  1  0  1  0  0  0  0  0  0
  1  6  1  0  0  0  0
  1  7  1  0  0  0  0
  1 18  1  0  0  0  0
  1 25  1  0  0  0  0
  2 12  1  0  0  0  0
  2 13  1  0  0  0  0
  2 15  1  0  0  0  0
  2 30  1  0  0  0  0
  3  5  2  0  0  0  0
  3  8  1  0  0  0  0
  3 19  1  0  0  0  0
  4  6  1  0  0  0  0
  4  8  2  0  0  0  0
  4 10  1  0  0  0  0
  5  9  1  0  0  0  0
  5 27  1  0  0  0  0
  6 28  1  0  0  0  0
  6 29  1  0  0  0  0
  7 11  1  0  0  0  0
  7 31  1  0  0  0  0
  7 32  1  0  0  0  0
  8 33  1  0  0  0  0
  9 10  2  0  0  0  0
  9 24  1  0  0  0  0
 10 22  1  0  0  0  0
 11 12  1  0  0  0  0
 11 34  1  0  0  0  0
 11 35  1  0  0  0  0
 12 17  1  0  0  0  0
 12 36  1  0  0  0  0
 13 14  1  0  0  0  0
 13 37  1  0  0  0  0
 13 38  1  0  0  0  0
 14 39  1  0  0  0  0
 14 40  1  0  0  0  0
 14 41  1  0  0  0  0
 15 16  1  0  0  0  0
 15 42  1  0  0  0  0
 15 43  1  0  0  0  0
 16 44  1  0  0  0  0
 16 45  1  0  0  0  0
 16 46  1  0  0  0  0
 17 18  1  0  0  0  0
 17 47  1  0  0  0  0
 17 48  1  0  0  0  0
 18 49  1  0  0  0  0
 18 50  1  0  0  0  0
 19 20  3  0  0  0  0
 20 21  1  0  0  0  0
 21 23  1  0  0  0  0
 21 51  1  0  0  0  0
 21 52  1  0  0  0  0
 22 26  1  0  0  0  0
 23 53  1  0  0  0  0
M  END
> <ConfScore>
-0.328378 

$$$$
4agn


 53 54  0  0  0  0  0  0  0  0999 V2000
    2.5209    6.6299    6.3322 N   0  3  0  1  0  4  0  0  0  0  0  0
    1.3416    8.7866    9.1336 N   0  3  0  1  0  4  0  0  0  0  0  0
    0.5198    2.1284    6.0166 C   0  0  0  1  0  3  0  0  0  0  0  0
    1.6889    4.2140    5.9084 C   0  0  0  1  0  3  0  0  0  0  0  0
   -0.2218    2.4973    4.9159 C   0  0  0  1  0  3  0  0  0  0  0  0
    2.7438    5.1386    6.4710 C   0  0  0  1  0  4  0  0  0  0  0  0
    1.0783    6.9623    6.6507 C   0  0  0  1  0  4  0  0  0  0  0  0
    1.4847    2.9776    6.4993 C   0  0  0  1  0  3  0  0  0  0  0  0
   -0.0011    3.7227    4.2991 C   0  0  0  1  0  3  0  0  0  0  0  0
    0.9576    4.5824    4.7917 C   0  0  0  1  0  3  0  0  0  0  0  0
    0.8308    8.4545    6.7078 C   0  0  0  1  0  4  0  0  0  0  0  0
    1.7396    9.1749    7.6909 C   0  0  0  1  0  4  0  0  0  0  0  0
   -0.1208    8.9765    9.5180 C   0  0  0  1  0  4  0  0  0  0  0  0
   -0.3929    8.5382   10.9495 C   0  0  0  1  0  4  0  0  0  0  0  0
    2.2813    9.4622   10.1529 C   0  0  0  1  0  4  0  0  0  0  0  0
    1.8673    9.0942   11.5681 C   0  0  0  1  0  4  0  0  0  0  0  0
    3.1859    8.7850    7.4475 C   0  0  0  1  0  4  0  0  0  0  0  0
    3.3964    7.2849    7.3752 C   0  0  0  1  0  4  0  0  0  0  0  0
    0.2864    0.8700    6.6519 C   0  0  0  1  0  2  0  0  0  0  0  0
    0.0977   -0.1843    7.1920 C   0  0  0  1  0  2  0  0  0  0  0  0
   -0.1352   -1.4719    7.8487 C   0  0  0  1  0  4  0  0  0  0  0  0
    1.1834    5.7832    4.1854 O   0  0  0  1  0  2  0  0  0  0  0  0
    0.7464   -1.6270    8.9547 O   0  0  0  1  0  2  0  0  0  0  0  0
   -1.1455    4.2737    2.5902 I   0  0  0  1  0  1  0  0  0  0  0  0
    2.7338    6.9425    5.3977 H   0  0  0  1  0  1  0  0  0  0  0  0
    1.3922    5.6406    3.2698 H   0  0  0  1  0  1  0  0  0  0  0  0
   -0.9813    1.8284    4.5291 H   0  0  0  1  0  1  0  0  0  0  0  0
    2.8338    4.9188    7.5450 H   0  0  0  1  0  1  0  0  0  0  0  0
    3.6919    4.9002    5.9667 H   0  0  0  1  0  1  0  0  0  0  0  0
    1.5089    7.7950    9.2019 H   0  0  0  1  0  1  0  0  0  0  0  0
    0.8217    6.5239    7.6263 H   0  0  0  1  0  1  0  0  0  0  0  0
    0.4348    6.5267    5.8716 H   0  0  0  1  0  1  0  0  0  0  0  0
    2.0902    2.6790    7.3477 H   0  0  0  1  0  1  0  0  0  0  0  0
   -0.2137    8.6243    7.0083 H   0  0  0  1  0  1  0  0  0  0  0  0
    0.9974    8.8751    5.7050 H   0  0  0  1  0  1  0  0  0  0  0  0
    1.6289   10.2616    7.5592 H   0  0  0  1  0  1  0  0  0  0  0  0
   -0.7480    8.3814    8.8389 H   0  0  0  1  0  1  0  0  0  0  0  0
   -0.3792   10.0414    9.4177 H   0  0  0  1  0  1  0  0  0  0  0  0
    0.2234    9.1328   11.6383 H   0  0  0  1  0  1  0  0  0  0  0  0
   -0.1432    7.4727   11.0601 H   0  0  0  1  0  1  0  0  0  0  0  0
   -1.4565    8.6910   11.1840 H   0  0  0  1  0  1  0  0  0  0  0  0
    2.2258   10.5551   10.0311 H   0  0  0  1  0  1  0  0  0  0  0  0
    3.3132    9.1251    9.9773 H   0  0  0  1  0  1  0  0  0  0  0  0
    2.5544    9.5665   12.2857 H   0  0  0  1  0  1  0  0  0  0  0  0
    1.9052    8.0020   11.6882 H   0  0  0  1  0  1  0  0  0  0  0  0
    0.8428    9.4484   11.7537 H   0  0  0  1  0  1  0  0  0  0  0  0
    3.7988    9.1848    8.2693 H   0  0  0  1  0  1  0  0  0  0  0  0
    3.5123    9.2299    6.4961 H   0  0  0  1  0  1  0  0  0  0  0  0
    4.4501    7.0876    7.1265 H   0  0  0  1  0  1  0  0  0  0  0  0
    3.1629    6.8478    8.3574 H   0  0  0  1  0  1  0  0  0  0  0  0
    0.0400   -2.2840    7.1284 H   0  0  0  1  0  1  0  0  0  0  0  0
   -1.1755   -1.5150    8.2045 H   0  0  0  1  0  1  0  0  0  0  0  0
    0.5851   -2.4654    9.3712 H   0  0  0  1  0  1  0  0  0  0  0  0
  1  6  1  0  0  0  0
  1  7  1  0  0  0  0
  1 18  1  0  0  0  0
  1 25  1  0  0  0  0
  2 12  1  0  0  0  0
  2 13  1  0  0  0  0
  2 15  1  0  0  0  0
  2 30  1  0  0  0  0
  3  5  2  0  0  0  0
  3  8  1  0  0  0  0
  3 19  1  0  0  0  0
  4  6  1  0  0  0  0
  4  8  2  0  0  0  0
  4 10  1  0  0  0  0
  5  9  1  0  0  0  0
  5 27  1  0  0  0  0
  6 28  1  0  0  0  0
  6 29  1  0  0  0  0
  7 11  1  0  0  0  0
  7 31  1  0  0  0  0
  7 32  1  0  0  0  0
  8 33  1  0  0  0  0
  9 10  2  0  0  0  0
  9 24  1  0  0  0  0
 10 22  1  0  0  0  0
 11 12  1  0  0  0  0
 11 34  1  0  0  0  0
 11 35  1  0  0  0  0
 12 17  1  0  0  0  0
 12 36  1  0  0  0  0
 13 14  1  0  0  0  0
 13 37  1  0  0  0  0
 13 38  1  0  0  0  0
 14 39  1  0  0  0  0
 14 40  1  0  0  0  0
 14 41  1  0  0  0  0
 15 16  1  0  0  0  0
 15 42  1  0  0  0  0
 15 43  1  0  0  0  0
 16 44  1  0  0  0  0
 16 45  1  0  0  0  0
 16 46  1  0  0  0  0
 17 18  1  0  0  0  0
 17 47  1  0  0  0  0
 17 48  1  0  0  0  0
 18 49  1  0  0  0  0
 18 50  1  0  0  0  0
 19 20  3  0  0  0  0
 20 21  1  0  0  0  0
 21 23  1  0  0  0  0
 21 51  1  0  0  0  0
 21 52  1  0  0  0  0
 22 26  1  0  0  0  0
 23 53  1  0  0  0  0
M  END
> <ConfScore>
-0.320979 

$$$$
4agn


 53 54  0  0  0  0  0  0  0  0999 V2000
    2.5209    6.6299    6.3322 N   0  3  0  1  0  4  0  0  0  0  0  0
    1.3416    8.7866    9.1336 N   0  3  0  1  0  4  0  0  0  0  0  0
    0.5198    2.1284    6.0166 C   0  0  0  1  0  3  0  0  0  0  0  0
    1.6889    4.2140    5.9084 C   0  0  0  1  0  3  0  0  0  0  0  0
   -0.2218    2.4973    4.9159 C   0  0  0  1  0  3  0  0  0  0  0  0
    2.7438    5.1386    6.4710 C   0  0  0  1  0  4  0  0  0  0  0  0
    1.0783    6.9623    6.6507 C   0  0  0  1  0  4  0  0  0  0  0  0
    1.4847    2.9776    6.4993 C   0  0  0  1  0  3  0  0  0  0  0  0
   -0.0011    3.7227    4.2991 C   0  0  0  1  0  3  0  0  0  0  0  0
    0.9576    4.5824    4.7917 C   0  0  0  1  0  3  0  0  0  0  0  0
    0.8308    8.4545    6.7078 C   0  0  0  1  0  4  0  0  0  0  0  0
    1.7396    9.1749    7.6909 C   0  0  0  1  0  4  0  0  0  0  0  0
   -0.1208    8.9765    9.5180 C   0  0  0  1  0  4  0  0  0  0  0  0
   -0.3929    8.5382   10.9495 C   0  0  0  1  0  4  0  0  0  0  0  0
    2.2813    9.4622   10.1529 C   0  0  0  1  0  4  0  0  0  0  0  0
    1.8673    9.0942   11.5681 C   0  0  0  1  0  4  0  0  0  0  0  0
    3.1859    8.7850    7.4475 C   0  0  0  1  0  4  0  0  0  0  0  0
    3.3964    7.2849    7.3752 C   0  0  0  1  0  4  0  0  0  0  0  0
    0.2864    0.8700    6.6519 C   0  0  0  1  0  2  0  0  0  0  0  0
    0.0977   -0.1843    7.1920 C   0  0  0  1  0  2  0  0  0  0  0  0
   -0.1352   -1.4719    7.8487 C   0  0  0  1  0  4  0  0  0  0  0  0
    1.1834    5.7832    4.1854 O   0  0  0  1  0  2  0  0  0  0  0  0
    0.7464   -1.6270    8.9547 O   0  0  0  1  0  2  0  0  0  0  0  0
   -1.1455    4.2737    2.5902 I   0  0  0  1  0  1  0  0  0  0  0  0
    2.7338    6.9425    5.3977 H   0  0  0  1  0  1  0  0  0  0  0  0
    1.3922    5.6406    3.2698 H   0  0  0  1  0  1  0  0  0  0  0  0
   -0.9813    1.8284    4.5291 H   0  0  0  1  0  1  0  0  0  0  0  0
    2.8338    4.9188    7.5450 H   0  0  0  1  0  1  0  0  0  0  0  0
    3.6919    4.9002    5.9667 H   0  0  0  1  0  1  0  0  0  0  0  0
    1.5089    7.7950    9.2019 H   0  0  0  1  0  1  0  0  0  0  0  0
    0.8217    6.5239    7.6263 H   0  0  0  1  0  1  0  0  0  0  0  0
    0.4348    6.5267    5.8716 H   0  0  0  1  0  1  0  0  0  0  0  0
    2.0902    2.6790    7.3477 H   0  0  0  1  0  1  0  0  0  0  0  0
   -0.2137    8.6243    7.0083 H   0  0  0  1  0  1  0  0  0  0  0  0
    0.9974    8.8751    5.7050 H   0  0  0  1  0  1  0  0  0  0  0  0
    1.6289   10.2616    7.5592 H   0  0  0  1  0  1  0  0  0  0  0  0
   -0.7480    8.3814    8.8389 H   0  0  0  1  0  1  0  0  0  0  0  0
   -0.3792   10.0414    9.4177 H   0  0  0  1  0  1  0  0  0  0  0  0
   -1.4517    8.7084   11.1900 H   0  0  0  1  0  1  0  0  0  0  0  0
    0.2380    9.1204   11.6371 H   0  0  0  1  0  1  0  0  0  0  0  0
   -0.1600    7.4686   11.0561 H   0  0  0  1  0  1  0  0  0  0  0  0
    2.2258   10.5551   10.0311 H   0  0  0  1  0  1  0  0  0  0  0  0
    3.3132    9.1251    9.9773 H   0  0  0  1  0  1  0  0  0  0  0  0
    2.5544    9.5665   12.2857 H   0  0  0  1  0  1  0  0  0  0  0  0
    1.9052    8.0020   11.6882 H   0  0  0  1  0  1  0  0  0  0  0  0
    0.8428    9.4484   11.7537 H   0  0  0  1  0  1  0  0  0  0  0  0
    3.7988    9.1848    8.2693 H   0  0  0  1  0  1  0  0  0  0  0  0
    3.5123    9.2299    6.4961 H   0  0  0  1  0  1  0  0  0  0  0  0
    4.4501    7.0876    7.1265 H   0  0  0  1  0  1  0  0  0  0  0  0
    3.1629    6.8478    8.3574 H   0  0  0  1  0  1  0  0  0  0  0  0
    0.0400   -2.2840    7.1284 H   0  0  0  1  0  1  0  0  0  0  0  0
   -1.1755   -1.5150    8.2045 H   0  0  0  1  0  1  0  0  0  0  0  0
    0.5851   -2.4654    9.3712 H   0  0  0  1  0  1  0  0  0  0  0  0
  1  6  1  0  0  0  0
  1  7  1  0  0  0  0
  1 18  1  0  0  0  0
  1 25  1  0  0  0  0
  2 12  1  0  0  0  0
  2 13  1  0  0  0  0
  2 15  1  0  0  0  0
  2 30  1  0  0  0  0
  3  5  2  0  0  0  0
  3  8  1  0  0  0  0
  3 19  1  0  0  0  0
  4  6  1  0  0  0  0
  4  8  2  0  0  0  0
  4 10  1  0  0  0  0
  5  9  1  0  0  0  0
  5 27  1  0  0  0  0
  6 28  1  0  0  0  0
  6 29  1  0  0  0  0
  7 11  1  0  0  0  0
  7 31  1  0  0  0  0
  7 32  1  0  0  0  0
  8 33  1  0  0  0  0
  9 10  2  0  0  0  0
  9 24  1  0  0  0  0
 10 22  1  0  0  0  0
 11 12  1  0  0  0  0
 11 34  1  0  0  0  0
 11 35  1  0  0  0  0
 12 17  1  0  0  0  0
 12 36  1  0  0  0  0
 13 14  1  0  0  0  0
 13 37  1  0  0  0  0
 13 38  1  0  0  0  0
 14 39  1  0  0  0  0
 14 40  1  0  0  0  0
 14 41  1  0  0  0  0
 15 16  1  0  0  0  0
 15 42  1  0  0  0  0
 15 43  1  0  0  0  0
 16 44  1  0  0  0  0
 16 45  1  0  0  0  0
 16 46  1  0  0  0  0
 17 18  1  0  0  0  0
 17 47  1  0  0  0  0
 17 48  1  0  0  0  0
 18 49  1  0  0  0  0
 18 50  1  0  0  0  0
 19 20  3  0  0  0  0
 20 21  1  0  0  0  0
 21 23  1  0  0  0  0
 21 51  1  0  0  0  0
 21 52  1  0  0  0  0
 22 26  1  0  0  0  0
 23 53  1  0  0  0  0
M  END
> <ConfScore>
-0.320979 

$$$$
4agn


 53 54  0  0  0  0  0  0  0  0999 V2000
   24.4330    4.1140    6.3520 N   0  3  0  1  0  4  0  0  0  0  0  0
   25.1964    0.4472    8.5037 N   0  3  0  1  0  4  0  0  0  0  0  0
   21.3722    7.0902    4.3715 C   0  0  0  1  0  3  0  0  0  0  0  0
   23.2230    5.5689    4.7481 C   0  0  0  1  0  3  0  0  0  0  0  0
   20.7581    6.1393    3.5402 C   0  0  0  1  0  3  0  0  0  0  0  0
   24.5480    5.2730    5.4500 C   0  0  0  1  0  4  0  0  0  0  0  0
   25.4840    4.1440    7.3870 C   0  0  0  1  0  4  0  0  0  0  0  0
   22.6086    6.8004    4.9793 C   0  0  0  1  0  3  0  0  0  0  0  0
   21.4071    4.9065    3.3296 C   0  0  0  1  0  3  0  0  0  0  0  0
   22.6354    4.5824    3.9184 C   0  0  0  1  0  3  0  0  0  0  0  0
   25.3250    2.9490    8.3330 C   0  0  0  1  0  4  0  0  0  0  0  0
   25.4480    1.6410    7.5540 C   0  0  0  1  0  4  0  0  0  0  0  0
   26.0654    0.3676    9.7531 C   0  0  0  1  0  4  0  0  0  0  0  0
   25.8797    1.5814   10.6518 C   0  0  0  1  0  4  0  0  0  0  0  0
   25.2197   -0.8805    7.7193 C   0  0  0  1  0  4  0  0  0  0  0  0
   24.6739   -2.0061    8.5823 C   0  0  0  1  0  4  0  0  0  0  0  0
   24.4130    1.6290    6.4330 C   0  0  0  1  0  4  0  0  0  0  0  0
   24.5460    2.8760    5.5510 C   0  0  0  1  0  4  0  0  0  0  0  0
   20.7900    8.3700    4.6266 C   0  0  0  1  0  2  0  0  0  0  0  0
   20.3091    9.4466    4.8466 C   0  0  0  1  0  2  0  0  0  0  0  0
   19.7193   10.7598    5.1130 C   0  0  0  1  0  4  0  0  0  0  0  0
   23.2785    3.3986    3.7048 O   0  0  0  1  0  2  0  0  0  0  0  0
   20.5579   11.5084    5.9852 O   0  0  0  1  0  2  0  0  0  0  0  0
   20.4725    3.4382    2.1030 I   0  0  0  1  0  1  0  0  0  0  0  0
   23.5397    4.1450    6.8182 H   0  0  0  1  0  1  0  0  0  0  0  0
   22.7543    2.8534    3.1301 H   0  0  0  1  0  1  0  0  0  0  0  0
   19.8049    6.3497    3.0702 H   0  0  0  1  0  1  0  0  0  0  0  0
   25.3150    5.0604    4.6908 H   0  0  0  1  0  1  0  0  0  0  0  0
   24.8464    6.1543    6.0367 H   0  0  0  1  0  1  0  0  0  0  0  0
   24.2539    0.5650    8.8412 H   0  0  0  1  0  1  0  0  0  0  0  0
   25.4009    5.0775    7.9629 H   0  0  0  1  0  1  0  0  0  0  0  0
   26.4716    4.0970    6.9042 H   0  0  0  1  0  1  0  0  0  0  0  0
   23.0808    7.5313    5.6262 H   0  0  0  1  0  1  0  0  0  0  0  0
   24.3363    2.9945    8.8130 H   0  0  0  1  0  1  0  0  0  0  0  0
   26.1094    2.9884    9.1033 H   0  0  0  1  0  1  0  0  0  0  0  0
   26.4576    1.5618    7.1241 H   0  0  0  1  0  1  0  0  0  0  0  0
   27.1206    0.3081    9.4500 H   0  0  0  1  0  1  0  0  0  0  0  0
   25.7940   -0.5369   10.3177 H   0  0  0  1  0  1  0  0  0  0  0  0
   26.1699    2.4898   10.1055 H   0  0  0  1  0  1  0  0  0  0  0  0
   26.5098    1.4743   11.5470 H   0  0  0  1  0  1  0  0  0  0  0  0
   24.8247    1.6562   10.9537 H   0  0  0  1  0  1  0  0  0  0  0  0
   26.2558   -1.1147    7.4299 H   0  0  0  1  0  1  0  0  0  0  0  0
   24.5996   -0.7820    6.8165 H   0  0  0  1  0  1  0  0  0  0  0  0
   24.6784   -2.9440    8.0074 H   0  0  0  1  0  1  0  0  0  0  0  0
   23.6449   -1.7676    8.8872 H   0  0  0  1  0  1  0  0  0  0  0  0
   25.3042   -2.1208    9.4762 H   0  0  0  1  0  1  0  0  0  0  0  0
   23.4051    1.6057    6.8739 H   0  0  0  1  0  1  0  0  0  0  0  0
   24.5636    0.7326    5.8138 H   0  0  0  1  0  1  0  0  0  0  0  0
   25.5270    2.8597    5.0527 H   0  0  0  1  0  1  0  0  0  0  0  0
   23.7488    2.8655    4.7929 H   0  0  0  1  0  1  0  0  0  0  0  0
   18.7339   10.6270    5.5826 H   0  0  0  1  0  1  0  0  0  0  0  0
   19.6032   11.3049    4.1642 H   0  0  0  1  0  1  0  0  0  0  0  0
   20.1641   12.3570    6.1498 H   0  0  0  1  0  1  0  0  0  0  0  0
  1  6  1  0  0  0  0
  1  7  1  0  0  0  0
  1 18  1  0  0  0  0
  1 25  1  0  0  0  0
  2 12  1  0  0  0  0
  2 13  1  0  0  0  0
  2 15  1  0  0  0  0
  2 30  1  0  0  0  0
  3  5  2  0  0  0  0
  3  8  1  0  0  0  0
  3 19  1  0  0  0  0
  4  6  1  0  0  0  0
  4  8  2  0  0  0  0
  4 10  1  0  0  0  0
  5  9  1  0  0  0  0
  5 27  1  0  0  0  0
  6 28  1  0  0  0  0
  6 29  1  0  0  0  0
  7 11  1  0  0  0  0
  7 31  1  0  0  0  0
  7 32  1  0  0  0  0
  8 33  1  0  0  0  0
  9 10  2  0  0  0  0
  9 24  1  0  0  0  0
 10 22  1  0  0  0  0
 11 12  1  0  0  0  0
 11 34  1  0  0  0  0
 11 35  1  0  0  0  0
 12 17  1  0  0  0  0
 12 36  1  0  0  0  0
 13 14  1  0  0  0  0
 13 37  1  0  0  0  0
 13 38  1  0  0  0  0
 14 39  1  0  0  0  0
 14 40  1  0  0  0  0
 14 41  1  0  0  0  0
 15 16  1  0  0  0  0
 15 42  1  0  0  0  0
 15 43  1  0  0  0  0
 16 44  1  0  0  0  0
 16 45  1  0  0  0  0
 16 46  1  0  0  0  0
 17 18  1  0  0  0  0
 17 47  1  0  0  0  0
 17 48  1  0  0  0  0
 18 49  1  0  0  0  0
 18 50  1  0  0  0  0
 19 20  3  0  0  0  0
 20 21  1  0  0  0  0
 21 23  1  0  0  0  0
 21 51  1  0  0  0  0
 21 52  1  0  0  0  0
 22 26  1  0  0  0  0
 23 53  1  0  0  0  0
M  END
> <ConfScore>
-0.317728 

$$$$
4agn


 53 54  0  0  0  0  0  0  0  0999 V2000
   24.4330    4.1140    6.3520 N   0  3  0  1  0  4  0  0  0  0  0  0
   25.1964    0.4472    8.5037 N   0  3  0  1  0  4  0  0  0  0  0  0
   21.4900    4.8572    3.2081 C   0  0  0  1  0  3  0  0  0  0  0  0
   23.2230    5.5689    4.7481 C   0  0  0  1  0  3  0  0  0  0  0  0
   20.8297    6.0846    3.3820 C   0  0  0  1  0  3  0  0  0  0  0  0
   24.5480    5.2730    5.4500 C   0  0  0  1  0  4  0  0  0  0  0  0
   25.4840    4.1440    7.3870 C   0  0  0  1  0  4  0  0  0  0  0  0
   22.6931    4.6017    3.8928 C   0  0  0  1  0  3  0  0  0  0  0  0
   21.3939    7.0377    4.2530 C   0  0  0  1  0  3  0  0  0  0  0  0
   22.5891    6.8197    4.9489 C   0  0  0  1  0  3  0  0  0  0  0  0
   25.3250    2.9490    8.3330 C   0  0  0  1  0  4  0  0  0  0  0  0
   25.4480    1.6410    7.5540 C   0  0  0  1  0  4  0  0  0  0  0  0
   26.0654    0.3676    9.7531 C   0  0  0  1  0  4  0  0  0  0  0  0
   26.0715    1.6791   10.5246 C   0  0  0  1  0  4  0  0  0  0  0  0
   25.2197   -0.8805    7.7193 C   0  0  0  1  0  4  0  0  0  0  0  0
   24.3439   -0.7709    6.4820 C   0  0  0  1  0  4  0  0  0  0  0  0
   24.4130    1.6290    6.4330 C   0  0  0  1  0  4  0  0  0  0  0  0
   24.5460    2.8760    5.5510 C   0  0  0  1  0  4  0  0  0  0  0  0
   20.9794    3.8304    2.3554 C   0  0  0  1  0  2  0  0  0  0  0  0
   20.5588    2.9627    1.6421 C   0  0  0  1  0  2  0  0  0  0  0  0
   20.0426    1.9057    0.7706 C   0  0  0  1  0  4  0  0  0  0  0  0
   23.1318    7.7300    5.8076 O   0  0  0  1  0  2  0  0  0  0  0  0
   20.9150    0.7819    0.7896 O   0  0  0  1  0  2  0  0  0  0  0  0
   20.4268    8.9186    4.4993 I   0  0  0  1  0  1  0  0  0  0  0  0
   23.5397    4.1450    6.8182 H   0  0  0  1  0  1  0  0  0  0  0  0
   22.5883    8.5088    5.8274 H   0  0  0  1  0  1  0  0  0  0  0  0
   19.9052    6.2939    2.8573 H   0  0  0  1  0  1  0  0  0  0  0  0
   25.3150    5.0604    4.6908 H   0  0  0  1  0  1  0  0  0  0  0  0
   24.8464    6.1543    6.0367 H   0  0  0  1  0  1  0  0  0  0  0  0
   24.2539    0.5650    8.8412 H   0  0  0  1  0  1  0  0  0  0  0  0
   25.4009    5.0775    7.9629 H   0  0  0  1  0  1  0  0  0  0  0  0
   26.4716    4.0970    6.9042 H   0  0  0  1  0  1  0  0  0  0  0  0
   23.2070    3.6570    3.7548 H   0  0  0  1  0  1  0  0  0  0  0  0
   24.3363    2.9945    8.8130 H   0  0  0  1  0  1  0  0  0  0  0  0
   26.1094    2.9884    9.1033 H   0  0  0  1  0  1  0  0  0  0  0  0
   26.4576    1.5618    7.1241 H   0  0  0  1  0  1  0  0  0  0  0  0
   27.0958    0.1256    9.4556 H   0  0  0  1  0  1  0  0  0  0  0  0
   25.6759   -0.4270   10.4069 H   0  0  0  1  0  1  0  0  0  0  0  0
   26.6937    1.5723   11.4242 H   0  0  0  1  0  1  0  0  0  0  0  0
   25.0431    1.9364   10.8180 H   0  0  0  1  0  1  0  0  0  0  0  0
   26.4810    2.4772    9.8881 H   0  0  0  1  0  1  0  0  0  0  0  0
   24.8405   -1.6901    8.3618 H   0  0  0  1  0  1  0  0  0  0  0  0
   26.2518   -1.1063    7.4145 H   0  0  0  1  0  1  0  0  0  0  0  0
   24.3819   -1.7164    5.9210 H   0  0  0  1  0  1  0  0  0  0  0  0
   24.7095    0.0480    5.8461 H   0  0  0  1  0  1  0  0  0  0  0  0
   23.3067   -0.5655    6.7846 H   0  0  0  1  0  1  0  0  0  0  0  0
   23.4051    1.6057    6.8739 H   0  0  0  1  0  1  0  0  0  0  0  0
   24.5636    0.7326    5.8138 H   0  0  0  1  0  1  0  0  0  0  0  0
   25.5270    2.8597    5.0527 H   0  0  0  1  0  1  0  0  0  0  0  0
   23.7488    2.8655    4.7929 H   0  0  0  1  0  1  0  0  0  0  0  0
   19.9656    2.2879   -0.2577 H   0  0  0  1  0  1  0  0  0  0  0  0
   19.0466    1.5984    1.1233 H   0  0  0  1  0  1  0  0  0  0  0  0
   20.5690    0.1045    0.2207 H   0  0  0  1  0  1  0  0  0  0  0  0
  1  6  1  0  0  0  0
  1  7  1  0  0  0  0
  1 18  1  0  0  0  0
  1 25  1  0  0  0  0
  2 12  1  0  0  0  0
  2 13  1  0  0  0  0
  2 15  1  0  0  0  0
  2 30  1  0  0  0  0
  3  5  2  0  0  0  0
  3  8  1  0  0  0  0
  3 19  1  0  0  0  0
  4  6  1  0  0  0  0
  4  8  2  0  0  0  0
  4 10  1  0  0  0  0
  5  9  1  0  0  0  0
  5 27  1  0  0  0  0
  6 28  1  0  0  0  0
  6 29  1  0  0  0  0
  7 11  1  0  0  0  0
  7 31  1  0  0  0  0
  7 32  1  0  0  0  0
  8 33  1  0  0  0  0
  9 10  2  0  0  0  0
  9 24  1  0  0  0  0
 10 22  1  0  0  0  0
 11 12  1  0  0  0  0
 11 34  1  0  0  0  0
 11 35  1  0  0  0  0
 12 17  1  0  0  0  0
 12 36  1  0  0  0  0
 13 14  1  0  0  0  0
 13 37  1  0  0  0  0
 13 38  1  0  0  0  0
 14 39  1  0  0  0  0
 14 40  1  0  0  0  0
 14 41  1  0  0  0  0
 15 16  1  0  0  0  0
 15 42  1  0  0  0  0
 15 43  1  0  0  0  0
 16 44  1  0  0  0  0
 16 45  1  0  0  0  0
 16 46  1  0  0  0  0
 17 18  1  0  0  0  0
 17 47  1  0  0  0  0
 17 48  1  0  0  0  0
 18 49  1  0  0  0  0
 18 50  1  0  0  0  0
 19 20  3  0  0  0  0
 20 21  1  0  0  0  0
 21 23  1  0  0  0  0
 21 51  1  0  0  0  0
 21 52  1  0  0  0  0
 22 26  1  0  0  0  0
 23 53  1  0  0  0  0
M  END
> <ConfScore>
-0.317197 

$$$$
4agn


 53 54  0  0  0  0  0  0  0  0999 V2000
   24.4330    4.1140    6.3520 N   0  3  0  1  0  4  0  0  0  0  0  0
   25.1964    0.4472    8.5037 N   0  3  0  1  0  4  0  0  0  0  0  0
   21.0889    6.7316    4.7423 C   0  0  0  1  0  3  0  0  0  0  0  0
   23.2178    5.5700    4.7453 C   0  0  0  1  0  3  0  0  0  0  0  0
   20.7440    6.0988    3.5367 C   0  0  0  1  0  3  0  0  0  0  0  0
   24.5480    5.2730    5.4500 C   0  0  0  1  0  4  0  0  0  0  0  0
   25.4840    4.1440    7.3870 C   0  0  0  1  0  4  0  0  0  0  0  0
   22.3304    6.4622    5.3488 C   0  0  0  1  0  3  0  0  0  0  0  0
   21.6644    5.2038    2.9561 C   0  0  0  1  0  3  0  0  0  0  0  0
   22.9067    4.9099    3.5312 C   0  0  0  1  0  3  0  0  0  0  0  0
   25.3250    2.9490    8.3330 C   0  0  0  1  0  4  0  0  0  0  0  0
   25.4480    1.6410    7.5540 C   0  0  0  1  0  4  0  0  0  0  0  0
   23.8258    0.3724    9.1657 C   0  0  0  1  0  4  0  0  0  0  0  0
   22.7059    0.7061    8.1911 C   0  0  0  1  0  4  0  0  0  0  0  0
   26.3286    0.3385    9.5453 C   0  0  0  1  0  4  0  0  0  0  0  0
   26.3082    1.5474   10.4662 C   0  0  0  1  0  4  0  0  0  0  0  0
   24.4130    1.6290    6.4330 C   0  0  0  1  0  4  0  0  0  0  0  0
   24.5460    2.8760    5.5510 C   0  0  0  1  0  4  0  0  0  0  0  0
   20.2208    7.6635    5.3902 C   0  0  0  1  0  2  0  0  0  0  0  0
   19.4990    8.4470    5.9415 C   0  0  0  1  0  2  0  0  0  0  0  0
   18.6155    9.4028    6.6117 C   0  0  0  1  0  4  0  0  0  0  0  0
   23.8105    4.0588    2.9659 O   0  0  0  1  0  2  0  0  0  0  0  0
   19.2228    9.8807    7.8063 O   0  0  0  1  0  2  0  0  0  0  0  0
   21.1426    4.2064    1.1487 I   0  0  0  1  0  1  0  0  0  0  0  0
   23.5397    4.1450    6.8182 H   0  0  0  1  0  1  0  0  0  0  0  0
   23.4496    3.7028    2.1626 H   0  0  0  1  0  1  0  0  0  0  0  0
   19.7898    6.2954    3.0627 H   0  0  0  1  0  1  0  0  0  0  0  0
   25.3150    5.0604    4.6908 H   0  0  0  1  0  1  0  0  0  0  0  0
   24.8464    6.1543    6.0367 H   0  0  0  1  0  1  0  0  0  0  0  0
   25.2585   -0.3757    7.9249 H   0  0  0  1  0  1  0  0  0  0  0  0
   25.4009    5.0775    7.9629 H   0  0  0  1  0  1  0  0  0  0  0  0
   26.4716    4.0970    6.9042 H   0  0  0  1  0  1  0  0  0  0  0  0
   22.5953    6.9454    6.2826 H   0  0  0  1  0  1  0  0  0  0  0  0
   24.3363    2.9945    8.8130 H   0  0  0  1  0  1  0  0  0  0  0  0
   26.1094    2.9884    9.1033 H   0  0  0  1  0  1  0  0  0  0  0  0
   26.4576    1.5618    7.1241 H   0  0  0  1  0  1  0  0  0  0  0  0
   23.7941    1.0863   10.0013 H   0  0  0  1  0  1  0  0  0  0  0  0
   23.6711   -0.6476    9.5483 H   0  0  0  1  0  1  0  0  0  0  0  0
   21.7371    0.6230    8.7035 H   0  0  0  1  0  1  0  0  0  0  0  0
   22.7351    0.0040    7.3450 H   0  0  0  1  0  1  0  0  0  0  0  0
   22.8371    1.7329    7.8193 H   0  0  0  1  0  1  0  0  0  0  0  0
   27.2984    0.2941    9.0261 H   0  0  0  1  0  1  0  0  0  0  0  0
   26.1893   -0.5746   10.1420 H   0  0  0  1  0  1  0  0  0  0  0  0
   25.3409    1.5945   10.9879 H   0  0  0  1  0  1  0  0  0  0  0  0
   26.4499    2.4619    9.8727 H   0  0  0  1  0  1  0  0  0  0  0  0
   27.1190    1.4594   11.2040 H   0  0  0  1  0  1  0  0  0  0  0  0
   23.4051    1.6057    6.8739 H   0  0  0  1  0  1  0  0  0  0  0  0
   24.5636    0.7326    5.8138 H   0  0  0  1  0  1  0  0  0  0  0  0
   25.5270    2.8597    5.0527 H   0  0  0  1  0  1  0  0  0  0  0  0
   23.7488    2.8655    4.7929 H   0  0  0  1  0  1  0  0  0  0  0  0
   17.6660    8.9071    6.8605 H   0  0  0  1  0  1  0  0  0  0  0  0
   18.4211   10.2512    5.9385 H   0  0  0  1  0  1  0  0  0  0  0  0
   18.6399   10.4990    8.2308 H   0  0  0  1  0  1  0  0  0  0  0  0
  1  6  1  0  0  0  0
  1  7  1  0  0  0  0
  1 18  1  0  0  0  0
  1 25  1  0  0  0  0
  2 12  1  0  0  0  0
  2 13  1  0  0  0  0
  2 15  1  0  0  0  0
  2 30  1  0  0  0  0
  3  5  2  0  0  0  0
  3  8  1  0  0  0  0
  3 19  1  0  0  0  0
  4  6  1  0  0  0  0
  4  8  2  0  0  0  0
  4 10  1  0  0  0  0
  5  9  1  0  0  0  0
  5 27  1  0  0  0  0
  6 28  1  0  0  0  0
  6 29  1  0  0  0  0
  7 11  1  0  0  0  0
  7 31  1  0  0  0  0
  7 32  1  0  0  0  0
  8 33  1  0  0  0  0
  9 10  2  0  0  0  0
  9 24  1  0  0  0  0
 10 22  1  0  0  0  0
 11 12  1  0  0  0  0
 11 34  1  0  0  0  0
 11 35  1  0  0  0  0
 12 17  1  0  0  0  0
 12 36  1  0  0  0  0
 13 14  1  0  0  0  0
 13 37  1  0  0  0  0
 13 38  1  0  0  0  0
 14 39  1  0  0  0  0
 14 40  1  0  0  0  0
 14 41  1  0  0  0  0
 15 16  1  0  0  0  0
 15 42  1  0  0  0  0
 15 43  1  0  0  0  0
 16 44  1  0  0  0  0
 16 45  1  0  0  0  0
 16 46  1  0  0  0  0
 17 18  1  0  0  0  0
 17 47  1  0  0  0  0
 17 48  1  0  0  0  0
 18 49  1  0  0  0  0
 18 50  1  0  0  0  0
 19 20  3  0  0  0  0
 20 21  1  0  0  0  0
 21 23  1  0  0  0  0
 21 51  1  0  0  0  0
 21 52  1  0  0  0  0
 22 26  1  0  0  0  0
 23 53  1  0  0  0  0
M  END
> <ConfScore>
-0.31707 

$$$$
4agn


 53 54  0  0  0  0  0  0  0  0999 V2000
   24.4330    4.1140    6.3520 N   0  3  0  1  0  4  0  0  0  0  0  0
   25.1964    0.4472    8.5037 N   0  3  0  1  0  4  0  0  0  0  0  0
   21.0889    6.7316    4.7423 C   0  0  0  1  0  3  0  0  0  0  0  0
   23.2178    5.5700    4.7453 C   0  0  0  1  0  3  0  0  0  0  0  0
   20.7440    6.0988    3.5367 C   0  0  0  1  0  3  0  0  0  0  0  0
   24.5480    5.2730    5.4500 C   0  0  0  1  0  4  0  0  0  0  0  0
   25.4840    4.1440    7.3870 C   0  0  0  1  0  4  0  0  0  0  0  0
   22.3304    6.4622    5.3488 C   0  0  0  1  0  3  0  0  0  0  0  0
   21.6644    5.2038    2.9561 C   0  0  0  1  0  3  0  0  0  0  0  0
   22.9067    4.9099    3.5312 C   0  0  0  1  0  3  0  0  0  0  0  0
   25.3250    2.9490    8.3330 C   0  0  0  1  0  4  0  0  0  0  0  0
   25.4480    1.6410    7.5540 C   0  0  0  1  0  4  0  0  0  0  0  0
   25.2751   -0.9464    7.8920 C   0  0  0  1  0  4  0  0  0  0  0  0
   26.4519   -1.0812    6.9369 C   0  0  0  1  0  4  0  0  0  0  0  0
   23.8790    0.6445    9.2810 C   0  0  0  1  0  4  0  0  0  0  0  0
   22.6982    0.6049    8.3250 C   0  0  0  1  0  4  0  0  0  0  0  0
   24.4130    1.6290    6.4330 C   0  0  0  1  0  4  0  0  0  0  0  0
   24.5460    2.8760    5.5510 C   0  0  0  1  0  4  0  0  0  0  0  0
   20.2208    7.6635    5.3902 C   0  0  0  1  0  2  0  0  0  0  0  0
   19.4990    8.4470    5.9415 C   0  0  0  1  0  2  0  0  0  0  0  0
   18.6155    9.4028    6.6117 C   0  0  0  1  0  4  0  0  0  0  0  0
   23.8105    4.0588    2.9659 O   0  0  0  1  0  2  0  0  0  0  0  0
   19.2228    9.8807    7.8063 O   0  0  0  1  0  2  0  0  0  0  0  0
   21.1426    4.2064    1.1487 I   0  0  0  1  0  1  0  0  0  0  0  0
   23.5397    4.1450    6.8182 H   0  0  0  1  0  1  0  0  0  0  0  0
   23.4496    3.7028    2.1626 H   0  0  0  1  0  1  0  0  0  0  0  0
   19.7898    6.2954    3.0627 H   0  0  0  1  0  1  0  0  0  0  0  0
   25.3150    5.0604    4.6908 H   0  0  0  1  0  1  0  0  0  0  0  0
   24.8464    6.1543    6.0367 H   0  0  0  1  0  1  0  0  0  0  0  0
   25.9394    0.4824    9.1840 H   0  0  0  1  0  1  0  0  0  0  0  0
   25.4009    5.0775    7.9629 H   0  0  0  1  0  1  0  0  0  0  0  0
   26.4716    4.0970    6.9042 H   0  0  0  1  0  1  0  0  0  0  0  0
   22.5953    6.9454    6.2826 H   0  0  0  1  0  1  0  0  0  0  0  0
   24.3363    2.9945    8.8130 H   0  0  0  1  0  1  0  0  0  0  0  0
   26.1094    2.9884    9.1033 H   0  0  0  1  0  1  0  0  0  0  0  0
   26.4576    1.5618    7.1241 H   0  0  0  1  0  1  0  0  0  0  0  0
   24.3452   -1.1466    7.3406 H   0  0  0  1  0  1  0  0  0  0  0  0
   25.3882   -1.6837    8.7009 H   0  0  0  1  0  1  0  0  0  0  0  0
   26.4815   -2.1032    6.5337 H   0  0  0  1  0  1  0  0  0  0  0  0
   27.3874   -0.8722    7.4763 H   0  0  0  1  0  1  0  0  0  0  0  0
   26.3378   -0.3642    6.1107 H   0  0  0  1  0  1  0  0  0  0  0  0
   23.8998    1.6196    9.7918 H   0  0  0  1  0  1  0  0  0  0  0  0
   23.7705   -0.1577   10.0252 H   0  0  0  1  0  1  0  0  0  0  0  0
   22.6732   -0.3687    7.8134 H   0  0  0  1  0  1  0  0  0  0  0  0
   22.8024    1.4077    7.5811 H   0  0  0  1  0  1  0  0  0  0  0  0
   21.7651    0.7466    8.8895 H   0  0  0  1  0  1  0  0  0  0  0  0
   23.4051    1.6057    6.8739 H   0  0  0  1  0  1  0  0  0  0  0  0
   24.5636    0.7326    5.8138 H   0  0  0  1  0  1  0  0  0  0  0  0
   25.5270    2.8597    5.0527 H   0  0  0  1  0  1  0  0  0  0  0  0
   23.7488    2.8655    4.7929 H   0  0  0  1  0  1  0  0  0  0  0  0
   17.6660    8.9071    6.8605 H   0  0  0  1  0  1  0  0  0  0  0  0
   18.4211   10.2512    5.9385 H   0  0  0  1  0  1  0  0  0  0  0  0
   18.6399   10.4990    8.2308 H   0  0  0  1  0  1  0  0  0  0  0  0
  1  6  1  0  0  0  0
  1  7  1  0  0  0  0
  1 18  1  0  0  0  0
  1 25  1  0  0  0  0
  2 12  1  0  0  0  0
  2 13  1  0  0  0  0
  2 15  1  0  0  0  0
  2 30  1  0  0  0  0
  3  5  2  0  0  0  0
  3  8  1  0  0  0  0
  3 19  1  0  0  0  0
  4  6  1  0  0  0  0
  4  8  2  0  0  0  0
  4 10  1  0  0  0  0
  5  9  1  0  0  0  0
  5 27  1  0  0  0  0
  6 28  1  0  0  0  0
  6 29  1  0  0  0  0
  7 11  1  0  0  0  0
  7 31  1  0  0  0  0
  7 32  1  0  0  0  0
  8 33  1  0  0  0  0
  9 10  2  0  0  0  0
  9 24  1  0  0  0  0
 10 22  1  0  0  0  0
 11 12  1  0  0  0  0
 11 34  1  0  0  0  0
 11 35  1  0  0  0  0
 12 17  1  0  0  0  0
 12 36  1  0  0  0  0
 13 14  1  0  0  0  0
 13 37  1  0  0  0  0
 13 38  1  0  0  0  0
 14 39  1  0  0  0  0
 14 40  1  0  0  0  0
 14 41  1  0  0  0  0
 15 16  1  0  0  0  0
 15 42  1  0  0  0  0
 15 43  1  0  0  0  0
 16 44  1  0  0  0  0
 16 45  1  0  0  0  0
 16 46  1  0  0  0  0
 17 18  1  0  0  0  0
 17 47  1  0  0  0  0
 17 48  1  0  0  0  0
 18 49  1  0  0  0  0
 18 50  1  0  0  0  0
 19 20  3  0  0  0  0
 20 21  1  0  0  0  0
 21 23  1  0  0  0  0
 21 51  1  0  0  0  0
 21 52  1  0  0  0  0
 22 26  1  0  0  0  0
 23 53  1  0  0  0  0
M  END
> <ConfScore>
-0.316421 

$$$$
4agn


 53 54  0  0  0  0  0  0  0  0999 V2000
   24.4330    4.1140    6.3520 N   0  3  0  1  0  4  0  0  0  0  0  0
   25.1964    0.4472    8.5037 N   0  3  0  1  0  4  0  0  0  0  0  0
   21.8363    7.8291    6.2648 C   0  0  0  1  0  3  0  0  0  0  0  0
   23.8545    6.5047    6.0311 C   0  0  0  1  0  3  0  0  0  0  0  0
   22.5463    8.7807    7.0152 C   0  0  0  1  0  3  0  0  0  0  0  0
   24.5480    5.2730    5.4500 C   0  0  0  1  0  4  0  0  0  0  0  0
   25.4840    4.1440    7.3870 C   0  0  0  1  0  4  0  0  0  0  0  0
   22.4961    6.6885    5.7692 C   0  0  0  1  0  3  0  0  0  0  0  0
   23.9166    8.5626    7.2599 C   0  0  0  1  0  3  0  0  0  0  0  0
   24.6063    7.4419    6.7816 C   0  0  0  1  0  3  0  0  0  0  0  0
   25.3250    2.9490    8.3330 C   0  0  0  1  0  4  0  0  0  0  0  0
   25.4480    1.6410    7.5540 C   0  0  0  1  0  4  0  0  0  0  0  0
   26.0654    0.3676    9.7531 C   0  0  0  1  0  4  0  0  0  0  0  0
   26.0899    1.6861   10.5123 C   0  0  0  1  0  4  0  0  0  0  0  0
   25.2197   -0.8805    7.7193 C   0  0  0  1  0  4  0  0  0  0  0  0
   24.2395   -0.8185    6.5594 C   0  0  0  1  0  4  0  0  0  0  0  0
   24.4130    1.6290    6.4330 C   0  0  0  1  0  4  0  0  0  0  0  0
   24.5460    2.8760    5.5510 C   0  0  0  1  0  4  0  0  0  0  0  0
   20.4421    7.9654    5.9832 C   0  0  0  1  0  2  0  0  0  0  0  0
   19.2719    8.0711    5.7417 C   0  0  0  1  0  2  0  0  0  0  0  0
   17.8436    8.2032    5.4487 C   0  0  0  1  0  4  0  0  0  0  0  0
   25.9282    7.2146    7.0297 O   0  0  0  1  0  2  0  0  0  0  0  0
   17.3954    7.0969    4.6744 O   0  0  0  1  0  2  0  0  0  0  0  0
   25.0173   10.0136    8.3630 I   0  0  0  1  0  1  0  0  0  0  0  0
   23.5397    4.1450    6.8182 H   0  0  0  1  0  1  0  0  0  0  0  0
   26.2817    7.9326    7.5415 H   0  0  0  1  0  1  0  0  0  0  0  0
   22.0500    9.6643    7.3985 H   0  0  0  1  0  1  0  0  0  0  0  0
   24.0828    5.0227    4.4853 H   0  0  0  1  0  1  0  0  0  0  0  0
   25.6128    5.5017    5.2958 H   0  0  0  1  0  1  0  0  0  0  0  0
   24.2539    0.5650    8.8412 H   0  0  0  1  0  1  0  0  0  0  0  0
   25.4009    5.0775    7.9629 H   0  0  0  1  0  1  0  0  0  0  0  0
   26.4716    4.0970    6.9042 H   0  0  0  1  0  1  0  0  0  0  0  0
   21.9506    5.9562    5.1846 H   0  0  0  1  0  1  0  0  0  0  0  0
   24.3363    2.9945    8.8130 H   0  0  0  1  0  1  0  0  0  0  0  0
   26.1094    2.9884    9.1033 H   0  0  0  1  0  1  0  0  0  0  0  0
   26.4576    1.5618    7.1241 H   0  0  0  1  0  1  0  0  0  0  0  0
   27.0922    0.1090    9.4571 H   0  0  0  1  0  1  0  0  0  0  0  0
   25.6658   -0.4155   10.4146 H   0  0  0  1  0  1  0  0  0  0  0  0
   26.7114    1.5793   11.4124 H   0  0  0  1  0  1  0  0  0  0  0  0
   25.0653    1.9600   10.8040 H   0  0  0  1  0  1  0  0  0  0  0  0
   26.5095    2.4726    9.8680 H   0  0  0  1  0  1  0  0  0  0  0  0
   24.9357   -1.7055    8.3907 H   0  0  0  1  0  1  0  0  0  0  0  0
   26.2327   -1.0564    7.3293 H   0  0  0  1  0  1  0  0  0  0  0  0
   24.2773   -1.7630    5.9966 H   0  0  0  1  0  1  0  0  0  0  0  0
   24.5101    0.0152    5.8957 H   0  0  0  1  0  1  0  0  0  0  0  0
   23.2223   -0.6633    6.9475 H   0  0  0  1  0  1  0  0  0  0  0  0
   23.4051    1.6057    6.8739 H   0  0  0  1  0  1  0  0  0  0  0  0
   24.5636    0.7326    5.8138 H   0  0  0  1  0  1  0  0  0  0  0  0
   25.5270    2.8597    5.0527 H   0  0  0  1  0  1  0  0  0  0  0  0
   23.7488    2.8655    4.7929 H   0  0  0  1  0  1  0  0  0  0  0  0
   17.6725    9.1326    4.8865 H   0  0  0  1  0  1  0  0  0  0  0  0
   17.2808    8.2370    6.3937 H   0  0  0  1  0  1  0  0  0  0  0  0
   16.4685    7.1950    4.4914 H   0  0  0  1  0  1  0  0  0  0  0  0
  1  6  1  0  0  0  0
  1  7  1  0  0  0  0
  1 18  1  0  0  0  0
  1 25  1  0  0  0  0
  2 12  1  0  0  0  0
  2 13  1  0  0  0  0
  2 15  1  0  0  0  0
  2 30  1  0  0  0  0
  3  5  2  0  0  0  0
  3  8  1  0  0  0  0
  3 19  1  0  0  0  0
  4  6  1  0  0  0  0
  4  8  2  0  0  0  0
  4 10  1  0  0  0  0
  5  9  1  0  0  0  0
  5 27  1  0  0  0  0
  6 28  1  0  0  0  0
  6 29  1  0  0  0  0
  7 11  1  0  0  0  0
  7 31  1  0  0  0  0
  7 32  1  0  0  0  0
  8 33  1  0  0  0  0
  9 10  2  0  0  0  0
  9 24  1  0  0  0  0
 10 22  1  0  0  0  0
 11 12  1  0  0  0  0
 11 34  1  0  0  0  0
 11 35  1  0  0  0  0
 12 17  1  0  0  0  0
 12 36  1  0  0  0  0
 13 14  1  0  0  0  0
 13 37  1  0  0  0  0
 13 38  1  0  0  0  0
 14 39  1  0  0  0  0
 14 40  1  0  0  0  0
 14 41  1  0  0  0  0
 15 16  1  0  0  0  0
 15 42  1  0  0  0  0
 15 43  1  0  0  0  0
 16 44  1  0  0  0  0
 16 45  1  0  0  0  0
 16 46  1  0  0  0  0
 17 18  1  0  0  0  0
 17 47  1  0  0  0  0
 17 48  1  0  0  0  0
 18 49  1  0  0  0  0
 18 50  1  0  0  0  0
 19 20  3  0  0  0  0
 20 21  1  0  0  0  0
 21 23  1  0  0  0  0
 21 51  1  0  0  0  0
 21 52  1  0  0  0  0
 22 26  1  0  0  0  0
 23 53  1  0  0  0  0
M  END
> <ConfScore>
-0.313305 

$$$$
4agn


 53 54  0  0  0  0  0  0  0  0999 V2000
   24.4330    4.1140    6.3520 N   0  3  0  1  0  4  0  0  0  0  0  0
   25.1964    0.4472    8.5037 N   0  3  0  1  0  4  0  0  0  0  0  0
   22.1676    8.2325    5.8052 C   0  0  0  1  0  3  0  0  0  0  0  0
   23.8545    6.5047    6.0311 C   0  0  0  1  0  3  0  0  0  0  0  0
   22.5902    8.8050    7.0161 C   0  0  0  1  0  3  0  0  0  0  0  0
   24.5480    5.2730    5.4500 C   0  0  0  1  0  4  0  0  0  0  0  0
   25.4840    4.1440    7.3870 C   0  0  0  1  0  4  0  0  0  0  0  0
   22.8060    7.0791    5.3112 C   0  0  0  1  0  3  0  0  0  0  0  0
   23.6521    8.1984    7.7160 C   0  0  0  1  0  3  0  0  0  0  0  0
   24.3118    7.0528    7.2548 C   0  0  0  1  0  3  0  0  0  0  0  0
   25.3250    2.9490    8.3330 C   0  0  0  1  0  4  0  0  0  0  0  0
   25.4480    1.6410    7.5540 C   0  0  0  1  0  4  0  0  0  0  0  0
   26.0654    0.3676    9.7531 C   0  0  0  1  0  4  0  0  0  0  0  0
   26.0899    1.6861   10.5123 C   0  0  0  1  0  4  0  0  0  0  0  0
   25.2197   -0.8805    7.7193 C   0  0  0  1  0  4  0  0  0  0  0  0
   24.2395   -0.8185    6.5594 C   0  0  0  1  0  4  0  0  0  0  0  0
   24.4130    1.6290    6.4330 C   0  0  0  1  0  4  0  0  0  0  0  0
   24.5460    2.8760    5.5510 C   0  0  0  1  0  4  0  0  0  0  0  0
   21.0896    8.7749    5.0401 C   0  0  0  1  0  2  0  0  0  0  0  0
   20.1858    9.2229    4.3910 C   0  0  0  1  0  2  0  0  0  0  0  0
   19.0824    9.7723    3.6011 C   0  0  0  1  0  4  0  0  0  0  0  0
   25.3282    6.4494    7.9355 O   0  0  0  1  0  2  0  0  0  0  0  0
   18.8782    8.9906    2.4300 O   0  0  0  1  0  2  0  0  0  0  0  0
   24.3311    9.0748    9.5339 I   0  0  0  1  0  1  0  0  0  0  0  0
   23.5397    4.1450    6.8182 H   0  0  0  1  0  1  0  0  0  0  0  0
   25.5115    6.9388    8.7287 H   0  0  0  1  0  1  0  0  0  0  0  0
   22.1090    9.6948    7.4042 H   0  0  0  1  0  1  0  0  0  0  0  0
   24.0828    5.0227    4.4853 H   0  0  0  1  0  1  0  0  0  0  0  0
   25.6128    5.5017    5.2958 H   0  0  0  1  0  1  0  0  0  0  0  0
   24.2539    0.5650    8.8412 H   0  0  0  1  0  1  0  0  0  0  0  0
   25.4009    5.0775    7.9629 H   0  0  0  1  0  1  0  0  0  0  0  0
   26.4716    4.0970    6.9042 H   0  0  0  1  0  1  0  0  0  0  0  0
   22.4847    6.6396    4.3735 H   0  0  0  1  0  1  0  0  0  0  0  0
   24.3363    2.9945    8.8130 H   0  0  0  1  0  1  0  0  0  0  0  0
   26.1094    2.9884    9.1033 H   0  0  0  1  0  1  0  0  0  0  0  0
   26.4576    1.5618    7.1241 H   0  0  0  1  0  1  0  0  0  0  0  0
   27.0922    0.1090    9.4571 H   0  0  0  1  0  1  0  0  0  0  0  0
   25.6658   -0.4155   10.4146 H   0  0  0  1  0  1  0  0  0  0  0  0
   26.7114    1.5793   11.4124 H   0  0  0  1  0  1  0  0  0  0  0  0
   25.0653    1.9600   10.8040 H   0  0  0  1  0  1  0  0  0  0  0  0
   26.5095    2.4726    9.8680 H   0  0  0  1  0  1  0  0  0  0  0  0
   24.9357   -1.7055    8.3907 H   0  0  0  1  0  1  0  0  0  0  0  0
   26.2327   -1.0564    7.3293 H   0  0  0  1  0  1  0  0  0  0  0  0
   24.2773   -1.7630    5.9966 H   0  0  0  1  0  1  0  0  0  0  0  0
   24.5101    0.0152    5.8957 H   0  0  0  1  0  1  0  0  0  0  0  0
   23.2223   -0.6633    6.9475 H   0  0  0  1  0  1  0  0  0  0  0  0
   23.4051    1.6057    6.8739 H   0  0  0  1  0  1  0  0  0  0  0  0
   24.5636    0.7326    5.8138 H   0  0  0  1  0  1  0  0  0  0  0  0
   25.5270    2.8597    5.0527 H   0  0  0  1  0  1  0  0  0  0  0  0
   23.7488    2.8655    4.7929 H   0  0  0  1  0  1  0  0  0  0  0  0
   19.3227   10.8053    3.3105 H   0  0  0  1  0  1  0  0  0  0  0  0
   18.1639    9.7659    4.2070 H   0  0  0  1  0  1  0  0  0  0  0  0
   18.1606    9.3575    1.9272 H   0  0  0  1  0  1  0  0  0  0  0  0
  1  6  1  0  0  0  0
  1  7  1  0  0  0  0
  1 18  1  0  0  0  0
  1 25  1  0  0  0  0
  2 12  1  0  0  0  0
  2 13  1  0  0  0  0
  2 15  1  0  0  0  0
  2 30  1  0  0  0  0
  3  5  2  0  0  0  0
  3  8  1  0  0  0  0
  3 19  1  0  0  0  0
  4  6  1  0  0  0  0
  4  8  2  0  0  0  0
  4 10  1  0  0  0  0
  5  9  1  0  0  0  0
  5 27  1  0  0  0  0
  6 28  1  0  0  0  0
  6 29  1  0  0  0  0
  7 11  1  0  0  0  0
  7 31  1  0  0  0  0
  7 32  1  0  0  0  0
  8 33  1  0  0  0  0
  9 10  2  0  0  0  0
  9 24  1  0  0  0  0
 10 22  1  0  0  0  0
 11 12  1  0  0  0  0
 11 34  1  0  0  0  0
 11 35  1  0  0  0  0
 12 17  1  0  0  0  0
 12 36  1  0  0  0  0
 13 14  1  0  0  0  0
 13 37  1  0  0  0  0
 13 38  1  0  0  0  0
 14 39  1  0  0  0  0
 14 40  1  0  0  0  0
 14 41  1  0  0  0  0
 15 16  1  0  0  0  0
 15 42  1  0  0  0  0
 15 43  1  0  0  0  0
 16 44  1  0  0  0  0
 16 45  1  0  0  0  0
 16 46  1  0  0  0  0
 17 18  1  0  0  0  0
 17 47  1  0  0  0  0
 17 48  1  0  0  0  0
 18 49  1  0  0  0  0
 18 50  1  0  0  0  0
 19 20  3  0  0  0  0
 20 21  1  0  0  0  0
 21 23  1  0  0  0  0
 21 51  1  0  0  0  0
 21 52  1  0  0  0  0
 22 26  1  0  0  0  0
 23 53  1  0  0  0  0
M  END
> <ConfScore>
-0.311451 

$$$$
4agn


 53 54  0  0  0  0  0  0  0  0999 V2000
   90.4980   98.3810  -44.6910 N   0  3  0  1  0  4  0  0  0  0  0  0
   92.0509  102.3792  -44.2366 N   0  3  0  1  0  4  0  0  0  0  0  0
   92.6013   94.7203  -46.3941 C   0  0  0  1  0  3  0  0  0  0  0  0
   90.8528   95.9992  -45.3037 C   0  0  0  1  0  3  0  0  0  0  0  0
   92.5951   93.8029  -45.3306 C   0  0  0  1  0  3  0  0  0  0  0  0
   89.9050   97.1660  -45.3350 C   0  0  0  1  0  4  0  0  0  0  0  0
   89.5430   99.5450  -44.7170 C   0  0  0  1  0  4  0  0  0  0  0  0
   91.7234   95.8207  -46.3798 C   0  0  0  1  0  3  0  0  0  0  0  0
   91.7025   94.0144  -44.2611 C   0  0  0  1  0  3  0  0  0  0  0  0
   90.8141   95.0956  -44.2134 C   0  0  0  1  0  3  0  0  0  0  0  0
   90.1750  100.7310  -44.0050 C   0  0  0  1  0  4  0  0  0  0  0  0
   91.4300  101.0810  -44.8020 C   0  0  0  1  0  4  0  0  0  0  0  0
   93.2367  102.9616  -44.9963 C   0  0  0  1  0  4  0  0  0  0  0  0
   93.2754  102.4840  -46.4405 C   0  0  0  1  0  4  0  0  0  0  0  0
   92.3718  102.2152  -42.7371 C   0  0  0  1  0  4  0  0  0  0  0  0
   91.1561  101.6797  -41.9988 C   0  0  0  1  0  4  0  0  0  0  0  0
   92.4510   99.9400  -44.6950 C   0  0  0  1  0  4  0  0  0  0  0  0
   91.8210   98.7070  -45.3220 C   0  0  0  1  0  4  0  0  0  0  0  0
   93.4841   94.5886  -47.5099 C   0  0  0  1  0  2  0  0  0  0  0  0
   94.2290   94.4697  -48.4426 C   0  0  0  1  0  2  0  0  0  0  0  0
   95.1368   94.3275  -49.5823 C   0  0  0  1  0  4  0  0  0  0  0  0
   89.9601   95.3171  -43.1731 O   0  0  0  1  0  2  0  0  0  0  0  0
   95.9441   93.1663  -49.4269 O   0  0  0  1  0  2  0  0  0  0  0  0
   91.6525   92.6130  -42.6588 I   0  0  0  1  0  1  0  0  0  0  0  0
   90.6653   98.1804  -43.7174 H   0  0  0  1  0  1  0  0  0  0  0  0
   90.0585   94.6246  -42.5306 H   0  0  0  1  0  1  0  0  0  0  0  0
   93.2635   92.9501  -45.3325 H   0  0  0  1  0  1  0  0  0  0  0  0
   89.6632   97.4003  -46.3821 H   0  0  0  1  0  1  0  0  0  0  0  0
   88.9849   96.8918  -44.7982 H   0  0  0  1  0  1  0  0  0  0  0  0
   91.3249  103.0755  -44.3006 H   0  0  0  1  0  1  0  0  0  0  0  0
   88.6095   99.2654  -44.2068 H   0  0  0  1  0  1  0  0  0  0  0  0
   89.3241   99.8172  -45.7604 H   0  0  0  1  0  1  0  0  0  0  0  0
   91.7230   96.5263  -47.2030 H   0  0  0  1  0  1  0  0  0  0  0  0
   90.4413  100.4593  -42.9728 H   0  0  0  1  0  1  0  0  0  0  0  0
   89.4801  101.5838  -43.9926 H   0  0  0  1  0  1  0  0  0  0  0  0
   91.1611  101.2321  -45.8581 H   0  0  0  1  0  1  0  0  0  0  0  0
   94.1662  102.6549  -44.4956 H   0  0  0  1  0  1  0  0  0  0  0  0
   93.1599  104.0592  -44.9875 H   0  0  0  1  0  1  0  0  0  0  0  0
   94.1428  102.9267  -46.9499 H   0  0  0  1  0  1  0  0  0  0  0  0
   92.3522  102.7917  -46.9531 H   0  0  0  1  0  1  0  0  0  0  0  0
   93.3578  101.3874  -46.4621 H   0  0  0  1  0  1  0  0  0  0  0  0
   92.6511  103.1930  -42.3151 H   0  0  0  1  0  1  0  0  0  0  0  0
   93.2081  101.5113  -42.6176 H   0  0  0  1  0  1  0  0  0  0  0  0
   91.4014  101.5497  -40.9344 H   0  0  0  1  0  1  0  0  0  0  0  0
   90.8640  100.7110  -42.4290 H   0  0  0  1  0  1  0  0  0  0  0  0
   90.3238  102.3916  -42.0991 H   0  0  0  1  0  1  0  0  0  0  0  0
   92.6879   99.7452  -43.6383 H   0  0  0  1  0  1  0  0  0  0  0  0
   93.3715  100.2074  -45.2344 H   0  0  0  1  0  1  0  0  0  0  0  0
   91.6686   98.8910  -46.3962 H   0  0  0  1  0  1  0  0  0  0  0  0
   92.5004   97.8520  -45.1886 H   0  0  0  1  0  1  0  0  0  0  0  0
   95.7844   95.2141  -49.6437 H   0  0  0  1  0  1  0  0  0  0  0  0
   94.5472   94.2390  -50.5072 H   0  0  0  1  0  1  0  0  0  0  0  0
   96.5278   93.0861  -50.1720 H   0  0  0  1  0  1  0  0  0  0  0  0
  1  6  1  0  0  0  0
  1  7  1  0  0  0  0
  1 18  1  0  0  0  0
  1 25  1  0  0  0  0
  2 12  1  0  0  0  0
  2 13  1  0  0  0  0
  2 15  1  0  0  0  0
  2 30  1  0  0  0  0
  3  5  2  0  0  0  0
  3  8  1  0  0  0  0
  3 19  1  0  0  0  0
  4  6  1  0  0  0  0
  4  8  2  0  0  0  0
  4 10  1  0  0  0  0
  5  9  1  0  0  0  0
  5 27  1  0  0  0  0
  6 28  1  0  0  0  0
  6 29  1  0  0  0  0
  7 11  1  0  0  0  0
  7 31  1  0  0  0  0
  7 32  1  0  0  0  0
  8 33  1  0  0  0  0
  9 10  2  0  0  0  0
  9 24  1  0  0  0  0
 10 22  1  0  0  0  0
 11 12  1  0  0  0  0
 11 34  1  0  0  0  0
 11 35  1  0  0  0  0
 12 17  1  0  0  0  0
 12 36  1  0  0  0  0
 13 14  1  0  0  0  0
 13 37  1  0  0  0  0
 13 38  1  0  0  0  0
 14 39  1  0  0  0  0
 14 40  1  0  0  0  0
 14 41  1  0  0  0  0
 15 16  1  0  0  0  0
 15 42  1  0  0  0  0
 15 43  1  0  0  0  0
 16 44  1  0  0  0  0
 16 45  1  0  0  0  0
 16 46  1  0  0  0  0
 17 18  1  0  0  0  0
 17 47  1  0  0  0  0
 17 48  1  0  0  0  0
 18 49  1  0  0  0  0
 18 50  1  0  0  0  0
 19 20  3  0  0  0  0
 20 21  1  0  0  0  0
 21 23  1  0  0  0  0
 21 51  1  0  0  0  0
 21 52  1  0  0  0  0
 22 26  1  0  0  0  0
 23 53  1  0  0  0  0
M  END
> <ConfScore>
-0.303364 

$$$$
4agn


 53 54  0  0  0  0  0  0  0  0999 V2000
   90.4980   98.3810  -44.6910 N   0  3  0  1  0  4  0  0  0  0  0  0
   92.0509  102.3792  -44.2366 N   0  3  0  1  0  4  0  0  0  0  0  0
   92.6013   94.7203  -46.3941 C   0  0  0  1  0  3  0  0  0  0  0  0
   90.8528   95.9992  -45.3037 C   0  0  0  1  0  3  0  0  0  0  0  0
   92.5951   93.8029  -45.3306 C   0  0  0  1  0  3  0  0  0  0  0  0
   89.9050   97.1660  -45.3350 C   0  0  0  1  0  4  0  0  0  0  0  0
   89.5430   99.5450  -44.7170 C   0  0  0  1  0  4  0  0  0  0  0  0
   91.7234   95.8207  -46.3798 C   0  0  0  1  0  3  0  0  0  0  0  0
   91.7025   94.0144  -44.2611 C   0  0  0  1  0  3  0  0  0  0  0  0
   90.8141   95.0956  -44.2134 C   0  0  0  1  0  3  0  0  0  0  0  0
   90.1750  100.7310  -44.0050 C   0  0  0  1  0  4  0  0  0  0  0  0
   91.4300  101.0810  -44.8020 C   0  0  0  1  0  4  0  0  0  0  0  0
   93.2367  102.9616  -44.9963 C   0  0  0  1  0  4  0  0  0  0  0  0
   93.2754  102.4840  -46.4405 C   0  0  0  1  0  4  0  0  0  0  0  0
   92.3718  102.2152  -42.7371 C   0  0  0  1  0  4  0  0  0  0  0  0
   91.1561  101.6797  -41.9988 C   0  0  0  1  0  4  0  0  0  0  0  0
   92.4510   99.9400  -44.6950 C   0  0  0  1  0  4  0  0  0  0  0  0
   91.8210   98.7070  -45.3220 C   0  0  0  1  0  4  0  0  0  0  0  0
   93.4841   94.5886  -47.5099 C   0  0  0  1  0  2  0  0  0  0  0  0
   94.2212   94.4866  -48.4507 C   0  0  0  1  0  2  0  0  0  0  0  0
   95.1223   94.3590  -49.5975 C   0  0  0  1  0  4  0  0  0  0  0  0
   89.9601   95.3171  -43.1731 O   0  0  0  1  0  2  0  0  0  0  0  0
   94.9067   95.4256  -50.5141 O   0  0  0  1  0  2  0  0  0  0  0  0
   91.6525   92.6130  -42.6588 I   0  0  0  1  0  1  0  0  0  0  0  0
   90.6653   98.1804  -43.7174 H   0  0  0  1  0  1  0  0  0  0  0  0
   90.0585   94.6246  -42.5306 H   0  0  0  1  0  1  0  0  0  0  0  0
   93.2635   92.9501  -45.3325 H   0  0  0  1  0  1  0  0  0  0  0  0
   89.6632   97.4003  -46.3821 H   0  0  0  1  0  1  0  0  0  0  0  0
   88.9849   96.8918  -44.7982 H   0  0  0  1  0  1  0  0  0  0  0  0
   91.3249  103.0755  -44.3006 H   0  0  0  1  0  1  0  0  0  0  0  0
   88.6095   99.2654  -44.2068 H   0  0  0  1  0  1  0  0  0  0  0  0
   89.3241   99.8172  -45.7604 H   0  0  0  1  0  1  0  0  0  0  0  0
   91.7230   96.5263  -47.2030 H   0  0  0  1  0  1  0  0  0  0  0  0
   90.4413  100.4593  -42.9728 H   0  0  0  1  0  1  0  0  0  0  0  0
   89.4801  101.5838  -43.9926 H   0  0  0  1  0  1  0  0  0  0  0  0
   91.1611  101.2321  -45.8581 H   0  0  0  1  0  1  0  0  0  0  0  0
   94.1662  102.6549  -44.4956 H   0  0  0  1  0  1  0  0  0  0  0  0
   93.1599  104.0592  -44.9875 H   0  0  0  1  0  1  0  0  0  0  0  0
   94.1428  102.9267  -46.9499 H   0  0  0  1  0  1  0  0  0  0  0  0
   92.3522  102.7917  -46.9531 H   0  0  0  1  0  1  0  0  0  0  0  0
   93.3578  101.3874  -46.4621 H   0  0  0  1  0  1  0  0  0  0  0  0
   92.6511  103.1930  -42.3151 H   0  0  0  1  0  1  0  0  0  0  0  0
   93.2081  101.5113  -42.6176 H   0  0  0  1  0  1  0  0  0  0  0  0
   91.4014  101.5497  -40.9344 H   0  0  0  1  0  1  0  0  0  0  0  0
   90.8640  100.7110  -42.4290 H   0  0  0  1  0  1  0  0  0  0  0  0
   90.3238  102.3916  -42.0991 H   0  0  0  1  0  1  0  0  0  0  0  0
   92.6879   99.7452  -43.6383 H   0  0  0  1  0  1  0  0  0  0  0  0
   93.3715  100.2074  -45.2344 H   0  0  0  1  0  1  0  0  0  0  0  0
   91.6686   98.8910  -46.3962 H   0  0  0  1  0  1  0  0  0  0  0  0
   92.5004   97.8520  -45.1886 H   0  0  0  1  0  1  0  0  0  0  0  0
   94.9326   93.4015  -50.1038 H   0  0  0  1  0  1  0  0  0  0  0  0
   96.1644   94.3877  -49.2453 H   0  0  0  1  0  1  0  0  0  0  0  0
   95.4968   95.3308  -51.2525 H   0  0  0  1  0  1  0  0  0  0  0  0
  1  6  1  0  0  0  0
  1  7  1  0  0  0  0
  1 18  1  0  0  0  0
  1 25  1  0  0  0  0
  2 12  1  0  0  0  0
  2 13  1  0  0  0  0
  2 15  1  0  0  0  0
  2 30  1  0  0  0  0
  3  5  2  0  0  0  0
  3  8  1  0  0  0  0
  3 19  1  0  0  0  0
  4  6  1  0  0  0  0
  4  8  2  0  0  0  0
  4 10  1  0  0  0  0
  5  9  1  0  0  0  0
  5 27  1  0  0  0  0
  6 28  1  0  0  0  0
  6 29  1  0  0  0  0
  7 11  1  0  0  0  0
  7 31  1  0  0  0  0
  7 32  1  0  0  0  0
  8 33  1  0  0  0  0
  9 10  2  0  0  0  0
  9 24  1  0  0  0  0
 10 22  1  0  0  0  0
 11 12  1  0  0  0  0
 11 34  1  0  0  0  0
 11 35  1  0  0  0  0
 12 17  1  0  0  0  0
 12 36  1  0  0  0  0
 13 14  1  0  0  0  0
 13 37  1  0  0  0  0
 13 38  1  0  0  0  0
 14 39  1  0  0  0  0
 14 40  1  0  0  0  0
 14 41  1  0  0  0  0
 15 16  1  0  0  0  0
 15 42  1  0  0  0  0
 15 43  1  0  0  0  0
 16 44  1  0  0  0  0
 16 45  1  0  0  0  0
 16 46  1  0  0  0  0
 17 18  1  0  0  0  0
 17 47  1  0  0  0  0
 17 48  1  0  0  0  0
 18 49  1  0  0  0  0
 18 50  1  0  0  0  0
 19 20  3  0  0  0  0
 20 21  1  0  0  0  0
 21 23  1  0  0  0  0
 21 51  1  0  0  0  0
 21 52  1  0  0  0  0
 22 26  1  0  0  0  0
 23 53  1  0  0  0  0
M  END
> <ConfScore>
-0.303364 

$$$$
4agn


 53 54  0  0  0  0  0  0  0  0999 V2000
   90.4980   98.3810  -44.6910 N   0  3  0  1  0  4  0  0  0  0  0  0
   92.0509  102.3792  -44.2366 N   0  3  0  1  0  4  0  0  0  0  0  0
   89.0140   94.6717  -42.6087 C   0  0  0  1  0  3  0  0  0  0  0  0
   89.9701   95.9678  -44.4308 C   0  0  0  1  0  3  0  0  0  0  0  0
   90.1159   93.8069  -42.6177 C   0  0  0  1  0  3  0  0  0  0  0  0
   89.9050   97.1660  -45.3350 C   0  0  0  1  0  4  0  0  0  0  0  0
   89.5430   99.5450  -44.7170 C   0  0  0  1  0  4  0  0  0  0  0  0
   88.9399   95.7464  -43.5080 C   0  0  0  1  0  3  0  0  0  0  0  0
   91.1368   94.0438  -43.5527 C   0  0  0  1  0  3  0  0  0  0  0  0
   91.1020   95.1115  -44.4692 C   0  0  0  1  0  3  0  0  0  0  0  0
   90.1750  100.7310  -44.0050 C   0  0  0  1  0  4  0  0  0  0  0  0
   91.4300  101.0810  -44.8020 C   0  0  0  1  0  4  0  0  0  0  0  0
   93.2367  102.9616  -44.9963 C   0  0  0  1  0  4  0  0  0  0  0  0
   92.9429  103.1065  -46.4823 C   0  0  0  1  0  4  0  0  0  0  0  0
   92.3718  102.2152  -42.7371 C   0  0  0  1  0  4  0  0  0  0  0  0
   92.7210  103.5630  -42.1277 C   0  0  0  1  0  4  0  0  0  0  0  0
   92.4510   99.9400  -44.6950 C   0  0  0  1  0  4  0  0  0  0  0  0
   91.8210   98.7070  -45.3220 C   0  0  0  1  0  4  0  0  0  0  0  0
   87.9545   94.4574  -41.6742 C   0  0  0  1  0  2  0  0  0  0  0  0
   87.0602   94.2855  -40.8935 C   0  0  0  1  0  2  0  0  0  0  0  0
   85.9705   94.0728  -39.9392 C   0  0  0  1  0  4  0  0  0  0  0  0
   92.1156   95.3156  -45.3590 O   0  0  0  1  0  2  0  0  0  0  0  0
   84.9651   95.0650  -40.1108 O   0  0  0  1  0  2  0  0  0  0  0  0
   92.8115   92.7293  -43.5853 I   0  0  0  1  0  1  0  0  0  0  0  0
   90.6653   98.1804  -43.7174 H   0  0  0  1  0  1  0  0  0  0  0  0
   92.9476   95.1395  -44.9359 H   0  0  0  1  0  1  0  0  0  0  0  0
   90.1790   92.9781  -41.9227 H   0  0  0  1  0  1  0  0  0  0  0  0
   90.4604   96.9457  -46.2585 H   0  0  0  1  0  1  0  0  0  0  0  0
   88.8523   97.3707  -45.5796 H   0  0  0  1  0  1  0  0  0  0  0  0
   91.3249  103.0755  -44.3006 H   0  0  0  1  0  1  0  0  0  0  0  0
   88.6095   99.2654  -44.2068 H   0  0  0  1  0  1  0  0  0  0  0  0
   89.3241   99.8172  -45.7604 H   0  0  0  1  0  1  0  0  0  0  0  0
   88.0814   96.4084  -43.4884 H   0  0  0  1  0  1  0  0  0  0  0  0
   90.4413  100.4593  -42.9728 H   0  0  0  1  0  1  0  0  0  0  0  0
   89.4801  101.5838  -43.9926 H   0  0  0  1  0  1  0  0  0  0  0  0
   91.1611  101.2321  -45.8581 H   0  0  0  1  0  1  0  0  0  0  0  0
   94.1030  102.2969  -44.8686 H   0  0  0  1  0  1  0  0  0  0  0  0
   93.4711  103.9539  -44.5825 H   0  0  0  1  0  1  0  0  0  0  0  0
   92.7295  102.1176  -46.9118 H   0  0  0  1  0  1  0  0  0  0  0  0
   93.8159  103.5455  -46.9873 H   0  0  0  1  0  1  0  0  0  0  0  0
   92.0713  103.7627  -46.6216 H   0  0  0  1  0  1  0  0  0  0  0  0
   93.2268  101.5315  -42.6200 H   0  0  0  1  0  1  0  0  0  0  0  0
   91.4953  101.7991  -42.2196 H   0  0  0  1  0  1  0  0  0  0  0  0
   92.9305  103.4372  -41.0551 H   0  0  0  1  0  1  0  0  0  0  0  0
   91.8756  104.2536  -42.2579 H   0  0  0  1  0  1  0  0  0  0  0  0
   93.6099  103.9724  -42.6294 H   0  0  0  1  0  1  0  0  0  0  0  0
   92.6879   99.7452  -43.6383 H   0  0  0  1  0  1  0  0  0  0  0  0
   93.3715  100.2074  -45.2344 H   0  0  0  1  0  1  0  0  0  0  0  0
   91.6686   98.8910  -46.3962 H   0  0  0  1  0  1  0  0  0  0  0  0
   92.5004   97.8520  -45.1886 H   0  0  0  1  0  1  0  0  0  0  0  0
   86.3674   94.1318  -38.9154 H   0  0  0  1  0  1  0  0  0  0  0  0
   85.5311   93.0778  -40.1057 H   0  0  0  1  0  1  0  0  0  0  0  0
   84.2651   94.9157  -39.4863 H   0  0  0  1  0  1  0  0  0  0  0  0
  1  6  1  0  0  0  0
  1  7  1  0  0  0  0
  1 18  1  0  0  0  0
  1 25  1  0  0  0  0
  2 12  1  0  0  0  0
  2 13  1  0  0  0  0
  2 15  1  0  0  0  0
  2 30  1  0  0  0  0
  3  5  2  0  0  0  0
  3  8  1  0  0  0  0
  3 19  1  0  0  0  0
  4  6  1  0  0  0  0
  4  8  2  0  0  0  0
  4 10  1  0  0  0  0
  5  9  1  0  0  0  0
  5 27  1  0  0  0  0
  6 28  1  0  0  0  0
  6 29  1  0  0  0  0
  7 11  1  0  0  0  0
  7 31  1  0  0  0  0
  7 32  1  0  0  0  0
  8 33  1  0  0  0  0
  9 10  2  0  0  0  0
  9 24  1  0  0  0  0
 10 22  1  0  0  0  0
 11 12  1  0  0  0  0
 11 34  1  0  0  0  0
 11 35  1  0  0  0  0
 12 17  1  0  0  0  0
 12 36  1  0  0  0  0
 13 14  1  0  0  0  0
 13 37  1  0  0  0  0
 13 38  1  0  0  0  0
 14 39  1  0  0  0  0
 14 40  1  0  0  0  0
 14 41  1  0  0  0  0
 15 16  1  0  0  0  0
 15 42  1  0  0  0  0
 15 43  1  0  0  0  0
 16 44  1  0  0  0  0
 16 45  1  0  0  0  0
 16 46  1  0  0  0  0
 17 18  1  0  0  0  0
 17 47  1  0  0  0  0
 17 48  1  0  0  0  0
 18 49  1  0  0  0  0
 18 50  1  0  0  0  0
 19 20  3  0  0  0  0
 20 21  1  0  0  0  0
 21 23  1  0  0  0  0
 21 51  1  0  0  0  0
 21 52  1  0  0  0  0
 22 26  1  0  0  0  0
 23 53  1  0  0  0  0
M  END
> <ConfScore>
-0.28621 

$$$$
4agn


 53 54  0  0  0  0  0  0  0  0999 V2000
   90.4980   98.3810  -44.6910 N   0  3  0  1  0  4  0  0  0  0  0  0
   92.0509  102.3792  -44.2366 N   0  3  0  1  0  4  0  0  0  0  0  0
   87.4759   95.4242  -43.0028 C   0  0  0  1  0  3  0  0  0  0  0  0
   88.6161   96.7584  -44.6766 C   0  0  0  1  0  3  0  0  0  0  0  0
   86.2389   95.9113  -43.4555 C   0  0  0  1  0  3  0  0  0  0  0  0
   89.9050   97.1660  -45.3350 C   0  0  0  1  0  4  0  0  0  0  0  0
   89.5430   99.5450  -44.7170 C   0  0  0  1  0  4  0  0  0  0  0  0
   88.6682   95.8488  -43.6194 C   0  0  0  1  0  3  0  0  0  0  0  0
   86.2244   96.8282  -44.5253 C   0  0  0  1  0  3  0  0  0  0  0  0
   87.3889   97.2712  -45.1641 C   0  0  0  1  0  3  0  0  0  0  0  0
   90.1750  100.7310  -44.0050 C   0  0  0  1  0  4  0  0  0  0  0  0
   91.4300  101.0810  -44.8020 C   0  0  0  1  0  4  0  0  0  0  0  0
   93.2367  102.9616  -44.9963 C   0  0  0  1  0  4  0  0  0  0  0  0
   93.2754  102.4840  -46.4405 C   0  0  0  1  0  4  0  0  0  0  0  0
   92.3718  102.2152  -42.7371 C   0  0  0  1  0  4  0  0  0  0  0  0
   91.1561  101.6797  -41.9988 C   0  0  0  1  0  4  0  0  0  0  0  0
   92.4510   99.9400  -44.6950 C   0  0  0  1  0  4  0  0  0  0  0  0
   91.8210   98.7070  -45.3220 C   0  0  0  1  0  4  0  0  0  0  0  0
   87.5815   94.5039  -41.9148 C   0  0  0  1  0  2  0  0  0  0  0  0
   87.6600   93.7313  -41.0006 C   0  0  0  1  0  2  0  0  0  0  0  0
   87.7594   92.7883  -39.8852 C   0  0  0  1  0  4  0  0  0  0  0  0
   87.3842   98.1724  -46.1880 O   0  0  0  1  0  2  0  0  0  0  0  0
   86.4634   92.4734  -39.3897 O   0  0  0  1  0  2  0  0  0  0  0  0
   84.3559   97.5476  -45.2498 I   0  0  0  1  0  1  0  0  0  0  0  0
   90.6653   98.1804  -43.7174 H   0  0  0  1  0  1  0  0  0  0  0  0
   86.4885   98.4138  -46.3923 H   0  0  0  1  0  1  0  0  0  0  0  0
   85.3146   95.5887  -42.9912 H   0  0  0  1  0  1  0  0  0  0  0  0
   90.6225   96.3359  -45.2574 H   0  0  0  1  0  1  0  0  0  0  0  0
   89.7096   97.3845  -46.3952 H   0  0  0  1  0  1  0  0  0  0  0  0
   91.3249  103.0755  -44.3006 H   0  0  0  1  0  1  0  0  0  0  0  0
   88.6095   99.2654  -44.2068 H   0  0  0  1  0  1  0  0  0  0  0  0
   89.3241   99.8172  -45.7604 H   0  0  0  1  0  1  0  0  0  0  0  0
   89.6234   95.4689  -43.2748 H   0  0  0  1  0  1  0  0  0  0  0  0
   90.4413  100.4593  -42.9728 H   0  0  0  1  0  1  0  0  0  0  0  0
   89.4801  101.5838  -43.9926 H   0  0  0  1  0  1  0  0  0  0  0  0
   91.1611  101.2321  -45.8581 H   0  0  0  1  0  1  0  0  0  0  0  0
   94.1662  102.6549  -44.4956 H   0  0  0  1  0  1  0  0  0  0  0  0
   93.1599  104.0592  -44.9875 H   0  0  0  1  0  1  0  0  0  0  0  0
   94.1428  102.9267  -46.9499 H   0  0  0  1  0  1  0  0  0  0  0  0
   92.3522  102.7917  -46.9531 H   0  0  0  1  0  1  0  0  0  0  0  0
   93.3578  101.3874  -46.4621 H   0  0  0  1  0  1  0  0  0  0  0  0
   92.6511  103.1930  -42.3151 H   0  0  0  1  0  1  0  0  0  0  0  0
   93.2081  101.5113  -42.6176 H   0  0  0  1  0  1  0  0  0  0  0  0
   91.4014  101.5497  -40.9344 H   0  0  0  1  0  1  0  0  0  0  0  0
   90.8640  100.7110  -42.4290 H   0  0  0  1  0  1  0  0  0  0  0  0
   90.3238  102.3916  -42.0991 H   0  0  0  1  0  1  0  0  0  0  0  0
   92.6879   99.7452  -43.6383 H   0  0  0  1  0  1  0  0  0  0  0  0
   93.3715  100.2074  -45.2344 H   0  0  0  1  0  1  0  0  0  0  0  0
   91.6686   98.8910  -46.3962 H   0  0  0  1  0  1  0  0  0  0  0  0
   92.5004   97.8520  -45.1886 H   0  0  0  1  0  1  0  0  0  0  0  0
   88.3560   93.2402  -39.0795 H   0  0  0  1  0  1  0  0  0  0  0  0
   88.2498   91.8662  -40.2319 H   0  0  0  1  0  1  0  0  0  0  0  0
   86.5422   91.8617  -38.6672 H   0  0  0  1  0  1  0  0  0  0  0  0
  1  6  1  0  0  0  0
  1  7  1  0  0  0  0
  1 18  1  0  0  0  0
  1 25  1  0  0  0  0
  2 12  1  0  0  0  0
  2 13  1  0  0  0  0
  2 15  1  0  0  0  0
  2 30  1  0  0  0  0
  3  5  2  0  0  0  0
  3  8  1  0  0  0  0
  3 19  1  0  0  0  0
  4  6  1  0  0  0  0
  4  8  2  0  0  0  0
  4 10  1  0  0  0  0
  5  9  1  0  0  0  0
  5 27  1  0  0  0  0
  6 28  1  0  0  0  0
  6 29  1  0  0  0  0
  7 11  1  0  0  0  0
  7 31  1  0  0  0  0
  7 32  1  0  0  0  0
  8 33  1  0  0  0  0
  9 10  2  0  0  0  0
  9 24  1  0  0  0  0
 10 22  1  0  0  0  0
 11 12  1  0  0  0  0
 11 34  1  0  0  0  0
 11 35  1  0  0  0  0
 12 17  1  0  0  0  0
 12 36  1  0  0  0  0
 13 14  1  0  0  0  0
 13 37  1  0  0  0  0
 13 38  1  0  0  0  0
 14 39  1  0  0  0  0
 14 40  1  0  0  0  0
 14 41  1  0  0  0  0
 15 16  1  0  0  0  0
 15 42  1  0  0  0  0
 15 43  1  0  0  0  0
 16 44  1  0  0  0  0
 16 45  1  0  0  0  0
 16 46  1  0  0  0  0
 17 18  1  0  0  0  0
 17 47  1  0  0  0  0
 17 48  1  0  0  0  0
 18 49  1  0  0  0  0
 18 50  1  0  0  0  0
 19 20  3  0  0  0  0
 20 21  1  0  0  0  0
 21 23  1  0  0  0  0
 21 51  1  0  0  0  0
 21 52  1  0  0  0  0
 22 26  1  0  0  0  0
 23 53  1  0  0  0  0
M  END
> <ConfScore>
-0.283715 

$$$$
4agn


 53 54  0  0  0  0  0  0  0  0999 V2000
   24.4330    4.1140    6.3520 N   0  3  0  1  0  4  0  0  0  0  0  0
   25.1964    0.4472    8.5037 N   0  3  0  1  0  4  0  0  0  0  0  0
   22.1676    8.2325    5.8052 C   0  0  0  1  0  3  0  0  0  0  0  0
   23.8545    6.5047    6.0311 C   0  0  0  1  0  3  0  0  0  0  0  0
   22.5902    8.8050    7.0161 C   0  0  0  1  0  3  0  0  0  0  0  0
   24.5480    5.2730    5.4500 C   0  0  0  1  0  4  0  0  0  0  0  0
   25.4840    4.1440    7.3870 C   0  0  0  1  0  4  0  0  0  0  0  0
   22.8060    7.0791    5.3112 C   0  0  0  1  0  3  0  0  0  0  0  0
   23.6521    8.1984    7.7160 C   0  0  0  1  0  3  0  0  0  0  0  0
   24.3118    7.0528    7.2548 C   0  0  0  1  0  3  0  0  0  0  0  0
   25.3250    2.9490    8.3330 C   0  0  0  1  0  4  0  0  0  0  0  0
   25.4480    1.6410    7.5540 C   0  0  0  1  0  4  0  0  0  0  0  0
   26.0654    0.3676    9.7531 C   0  0  0  1  0  4  0  0  0  0  0  0
   27.5369    0.1871    9.4102 C   0  0  0  1  0  4  0  0  0  0  0  0
   25.2197   -0.8805    7.7193 C   0  0  0  1  0  4  0  0  0  0  0  0
   24.2395   -0.8185    6.5594 C   0  0  0  1  0  4  0  0  0  0  0  0
   24.4130    1.6290    6.4330 C   0  0  0  1  0  4  0  0  0  0  0  0
   24.5460    2.8760    5.5510 C   0  0  0  1  0  4  0  0  0  0  0  0
   21.0896    8.7749    5.0401 C   0  0  0  1  0  2  0  0  0  0  0  0
   20.1858    9.2229    4.3910 C   0  0  0  1  0  2  0  0  0  0  0  0
   19.0824    9.7723    3.6011 C   0  0  0  1  0  4  0  0  0  0  0  0
   25.3282    6.4494    7.9355 O   0  0  0  1  0  2  0  0  0  0  0  0
   18.8782    8.9906    2.4300 O   0  0  0  1  0  2  0  0  0  0  0  0
   24.3311    9.0748    9.5339 I   0  0  0  1  0  1  0  0  0  0  0  0
   23.5397    4.1450    6.8182 H   0  0  0  1  0  1  0  0  0  0  0  0
   25.5115    6.9388    8.7287 H   0  0  0  1  0  1  0  0  0  0  0  0
   22.1090    9.6948    7.4042 H   0  0  0  1  0  1  0  0  0  0  0  0
   24.0828    5.0227    4.4853 H   0  0  0  1  0  1  0  0  0  0  0  0
   25.6128    5.5017    5.2958 H   0  0  0  1  0  1  0  0  0  0  0  0
   24.2539    0.5650    8.8412 H   0  0  0  1  0  1  0  0  0  0  0  0
   25.4009    5.0775    7.9629 H   0  0  0  1  0  1  0  0  0  0  0  0
   26.4716    4.0970    6.9042 H   0  0  0  1  0  1  0  0  0  0  0  0
   22.4847    6.6396    4.3735 H   0  0  0  1  0  1  0  0  0  0  0  0
   24.3363    2.9945    8.8130 H   0  0  0  1  0  1  0  0  0  0  0  0
   26.1094    2.9884    9.1033 H   0  0  0  1  0  1  0  0  0  0  0  0
   26.4576    1.5618    7.1241 H   0  0  0  1  0  1  0  0  0  0  0  0
   25.7355   -0.4856   10.3630 H   0  0  0  1  0  1  0  0  0  0  0  0
   25.9466    1.2979   10.3284 H   0  0  0  1  0  1  0  0  0  0  0  0
   28.1275    0.1526   10.3365 H   0  0  0  1  0  1  0  0  0  0  0  0
   27.8749    1.0306    8.7904 H   0  0  0  1  0  1  0  0  0  0  0  0
   27.6714   -0.7524    8.8544 H   0  0  0  1  0  1  0  0  0  0  0  0
   24.9357   -1.7055    8.3907 H   0  0  0  1  0  1  0  0  0  0  0  0
   26.2327   -1.0564    7.3293 H   0  0  0  1  0  1  0  0  0  0  0  0
   24.2773   -1.7630    5.9966 H   0  0  0  1  0  1  0  0  0  0  0  0
   24.5101    0.0152    5.8957 H   0  0  0  1  0  1  0  0  0  0  0  0
   23.2223   -0.6633    6.9475 H   0  0  0  1  0  1  0  0  0  0  0  0
   23.4051    1.6057    6.8739 H   0  0  0  1  0  1  0  0  0  0  0  0
   24.5636    0.7326    5.8138 H   0  0  0  1  0  1  0  0  0  0  0  0
   25.5270    2.8597    5.0527 H   0  0  0  1  0  1  0  0  0  0  0  0
   23.7488    2.8655    4.7929 H   0  0  0  1  0  1  0  0  0  0  0  0
   19.3227   10.8053    3.3105 H   0  0  0  1  0  1  0  0  0  0  0  0
   18.1639    9.7659    4.2070 H   0  0  0  1  0  1  0  0  0  0  0  0
   18.1606    9.3575    1.9272 H   0  0  0  1  0  1  0  0  0  0  0  0
  1  6  1  0  0  0  0
  1  7  1  0  0  0  0
  1 18  1  0  0  0  0
  1 25  1  0  0  0  0
  2 12  1  0  0  0  0
  2 13  1  0  0  0  0
  2 15  1  0  0  0  0
  2 30  1  0  0  0  0
  3  5  2  0  0  0  0
  3  8  1  0  0  0  0
  3 19  1  0  0  0  0
  4  6  1  0  0  0  0
  4  8  2  0  0  0  0
  4 10  1  0  0  0  0
  5  9  1  0  0  0  0
  5 27  1  0  0  0  0
  6 28  1  0  0  0  0
  6 29  1  0  0  0  0
  7 11  1  0  0  0  0
  7 31  1  0  0  0  0
  7 32  1  0  0  0  0
  8 33  1  0  0  0  0
  9 10  2  0  0  0  0
  9 24  1  0  0  0  0
 10 22  1  0  0  0  0
 11 12  1  0  0  0  0
 11 34  1  0  0  0  0
 11 35  1  0  0  0  0
 12 17  1  0  0  0  0
 12 36  1  0  0  0  0
 13 14  1  0  0  0  0
 13 37  1  0  0  0  0
 13 38  1  0  0  0  0
 14 39  1  0  0  0  0
 14 40  1  0  0  0  0
 14 41  1  0  0  0  0
 15 16  1  0  0  0  0
 15 42  1  0  0  0  0
 15 43  1  0  0  0  0
 16 44  1  0  0  0  0
 16 45  1  0  0  0  0
 16 46  1  0  0  0  0
 17 18  1  0  0  0  0
 17 47  1  0  0  0  0
 17 48  1  0  0  0  0
 18 49  1  0  0  0  0
 18 50  1  0  0  0  0
 19 20  3  0  0  0  0
 20 21  1  0  0  0  0
 21 23  1  0  0  0  0
 21 51  1  0  0  0  0
 21 52  1  0  0  0  0
 22 26  1  0  0  0  0
 23 53  1  0  0  0  0
M  END
> <ConfScore>
-0.267252 

$$$$
4agn


 53 54  0  0  0  0  0  0  0  0999 V2000
    5.4320    2.2550   28.3390 N   0  3  0  1  0  4  0  0  0  0  0  0
    4.8087   -1.3149   27.7656 N   0  3  0  1  0  4  0  0  0  0  0  0
    8.8792    0.4144   30.1205 C   0  0  0  1  0  3  0  0  0  0  0  0
    7.7362    2.3952   29.4147 C   0  0  0  1  0  3  0  0  0  0  0  0
   10.0544    1.1294   30.1934 C   0  0  0  1  0  3  0  0  0  0  0  0
    6.4640    3.0610   28.9950 C   0  0  0  1  0  4  0  0  0  0  0  0
    6.0520    1.4770   27.2550 C   0  0  0  1  0  4  0  0  0  0  0  0
    7.7205    1.0509   29.7496 C   0  0  0  1  0  3  0  0  0  0  0  0
   10.0716    2.4850   29.8889 C   0  0  0  1  0  3  0  0  0  0  0  0
    8.9116    3.1221   29.5025 C   0  0  0  1  0  3  0  0  0  0  0  0
    4.9600    0.8100   26.4490 C   0  0  0  1  0  4  0  0  0  0  0  0
    4.0370   -0.0500   27.3240 C   0  0  0  1  0  4  0  0  0  0  0  0
    5.7162   -1.1768   28.9821 C   0  0  0  1  0  4  0  0  0  0  0  0
    6.4188   -2.4843   29.3173 C   0  0  0  1  0  4  0  0  0  0  0  0
    5.5636   -1.9311   26.5702 C   0  0  0  1  0  4  0  0  0  0  0  0
    4.5764   -2.3853   25.5077 C   0  0  0  1  0  4  0  0  0  0  0  0
    3.5580    0.6920   28.5700 C   0  0  0  1  0  4  0  0  0  0  0  0
    4.7240    1.3610   29.2750 C   0  0  0  1  0  4  0  0  0  0  0  0
    8.8662   -0.9808   30.4287 C   0  0  0  1  0  2  0  0  0  0  0  0
    8.8506   -2.1538   30.6787 C   0  0  0  1  0  2  0  0  0  0  0  0
    8.8332   -3.5849   30.9869 C   0  0  0  1  0  4  0  0  0  0  0  0
    8.9216    4.4543   29.2098 O   0  0  0  1  0  2  0  0  0  0  0  0
    8.2220   -4.3097   29.9260 O   0  0  0  1  0  2  0  0  0  0  0  0
   11.8928    3.5805   30.0194 I   0  0  0  1  0  1  0  0  0  0  0  0
    4.7370    2.8836   27.9673 H   0  0  0  1  0  1  0  0  0  0  0  0
    9.2619    4.9385   29.9528 H   0  0  0  1  0  1  0  0  0  0  0  0
   10.9702    0.6320   30.4897 H   0  0  0  1  0  1  0  0  0  0  0  0
    6.0111    3.4930   29.8995 H   0  0  0  1  0  1  0  0  0  0  0  0
    6.7355    3.8682   28.2989 H   0  0  0  1  0  1  0  0  0  0  0  0
    4.1022   -1.9819   28.0340 H   0  0  0  1  0  1  0  0  0  0  0  0
    6.7161    0.7114   27.6825 H   0  0  0  1  0  1  0  0  0  0  0  0
    6.6345    2.1472   26.6052 H   0  0  0  1  0  1  0  0  0  0  0  0
    6.7881    0.4985   29.7188 H   0  0  0  1  0  1  0  0  0  0  0  0
    5.4247    0.1677   25.6863 H   0  0  0  1  0  1  0  0  0  0  0  0
    4.3577    1.5878   25.9566 H   0  0  0  1  0  1  0  0  0  0  0  0
    3.1596   -0.3441   26.7290 H   0  0  0  1  0  1  0  0  0  0  0  0
    5.1101   -0.8677   29.8457 H   0  0  0  1  0  1  0  0  0  0  0  0
    6.4761   -0.4090   28.7732 H   0  0  0  1  0  1  0  0  0  0  0  0
    7.0610   -2.3401   30.1975 H   0  0  0  1  0  1  0  0  0  0  0  0
    7.0339   -2.7995   28.4617 H   0  0  0  1  0  1  0  0  0  0  0  0
    5.6685   -3.2589   29.5337 H   0  0  0  1  0  1  0  0  0  0  0  0
    6.1487   -2.7973   26.9160 H   0  0  0  1  0  1  0  0  0  0  0  0
    6.2404   -1.1792   26.1391 H   0  0  0  1  0  1  0  0  0  0  0  0
    5.1259   -2.8064   24.6528 H   0  0  0  1  0  1  0  0  0  0  0  0
    3.9786   -1.5258   25.1722 H   0  0  0  1  0  1  0  0  0  0  0  0
    3.9112   -3.1525   25.9300 H   0  0  0  1  0  1  0  0  0  0  0  0
    3.0831   -0.0243   29.2570 H   0  0  0  1  0  1  0  0  0  0  0  0
    2.8262    1.4584   28.2752 H   0  0  0  1  0  1  0  0  0  0  0  0
    4.3471    1.9485   30.1257 H   0  0  0  1  0  1  0  0  0  0  0  0
    5.4196    0.5908   29.6400 H   0  0  0  1  0  1  0  0  0  0  0  0
    8.2649   -3.7500   31.9138 H   0  0  0  1  0  1  0  0  0  0  0  0
    9.8660   -3.9398   31.1216 H   0  0  0  1  0  1  0  0  0  0  0  0
    8.2170   -5.2355   30.1386 H   0  0  0  1  0  1  0  0  0  0  0  0
  1  6  1  0  0  0  0
  1  7  1  0  0  0  0
  1 18  1  0  0  0  0
  1 25  1  0  0  0  0
  2 12  1  0  0  0  0
  2 13  1  0  0  0  0
  2 15  1  0  0  0  0
  2 30  1  0  0  0  0
  3  5  2  0  0  0  0
  3  8  1  0  0  0  0
  3 19  1  0  0  0  0
  4  6  1  0  0  0  0
  4  8  2  0  0  0  0
  4 10  1  0  0  0  0
  5  9  1  0  0  0  0
  5 27  1  0  0  0  0
  6 28  1  0  0  0  0
  6 29  1  0  0  0  0
  7 11  1  0  0  0  0
  7 31  1  0  0  0  0
  7 32  1  0  0  0  0
  8 33  1  0  0  0  0
  9 10  2  0  0  0  0
  9 24  1  0  0  0  0
 10 22  1  0  0  0  0
 11 12  1  0  0  0  0
 11 34  1  0  0  0  0
 11 35  1  0  0  0  0
 12 17  1  0  0  0  0
 12 36  1  0  0  0  0
 13 14  1  0  0  0  0
 13 37  1  0  0  0  0
 13 38  1  0  0  0  0
 14 39  1  0  0  0  0
 14 40  1  0  0  0  0
 14 41  1  0  0  0  0
 15 16  1  0  0  0  0
 15 42  1  0  0  0  0
 15 43  1  0  0  0  0
 16 44  1  0  0  0  0
 16 45  1  0  0  0  0
 16 46  1  0  0  0  0
 17 18  1  0  0  0  0
 17 47  1  0  0  0  0
 17 48  1  0  0  0  0
 18 49  1  0  0  0  0
 18 50  1  0  0  0  0
 19 20  3  0  0  0  0
 20 21  1  0  0  0  0
 21 23  1  0  0  0  0
 21 51  1  0  0  0  0
 21 52  1  0  0  0  0
 22 26  1  0  0  0  0
 23 53  1  0  0  0  0
M  END
> <ConfScore>
-0.263714 

$$$$
4agn


 53 54  0  0  0  0  0  0  0  0999 V2000
    2.5209    6.6299    6.3322 N   0  3  0  1  0  4  0  0  0  0  0  0
    1.3416    8.7866    9.1336 N   0  3  0  1  0  4  0  0  0  0  0  0
    0.7539    3.0744    4.0229 C   0  0  0  1  0  3  0  0  0  0  0  0
    1.6889    4.2140    5.9084 C   0  0  0  1  0  3  0  0  0  0  0  0
   -0.2147    2.5350    4.8405 C   0  0  0  1  0  3  0  0  0  0  0  0
    2.7438    5.1386    6.4710 C   0  0  0  1  0  4  0  0  0  0  0  0
    1.0783    6.9623    6.6507 C   0  0  0  1  0  4  0  0  0  0  0  0
    1.6915    3.9258    4.5533 C   0  0  0  1  0  3  0  0  0  0  0  0
   -0.2421    2.8443    6.1949 C   0  0  0  1  0  3  0  0  0  0  0  0
    0.7074    3.6876    6.7314 C   0  0  0  1  0  3  0  0  0  0  0  0
    0.8308    8.4545    6.7078 C   0  0  0  1  0  4  0  0  0  0  0  0
    1.7396    9.1749    7.6909 C   0  0  0  1  0  4  0  0  0  0  0  0
   -0.1208    8.9765    9.5180 C   0  0  0  1  0  4  0  0  0  0  0  0
   -0.3929    8.5382   10.9495 C   0  0  0  1  0  4  0  0  0  0  0  0
    2.2813    9.4622   10.1529 C   0  0  0  1  0  4  0  0  0  0  0  0
    1.8673    9.0942   11.5681 C   0  0  0  1  0  4  0  0  0  0  0  0
    3.1859    8.7850    7.4475 C   0  0  0  1  0  4  0  0  0  0  0  0
    3.3964    7.2849    7.3752 C   0  0  0  1  0  4  0  0  0  0  0  0
    0.7827    2.7499    2.6316 C   0  0  0  1  0  2  0  0  0  0  0  0
    0.8150    2.4834    1.4625 C   0  0  0  1  0  2  0  0  0  0  0  0
    0.8515    2.1560    0.0361 C   0  0  0  1  0  4  0  0  0  0  0  0
    0.6804    4.0003    8.0588 O   0  0  0  1  0  2  0  0  0  0  0  0
    1.9341    2.8291   -0.5960 O   0  0  0  1  0  2  0  0  0  0  0  0
   -1.7535    2.0141    7.4441 I   0  0  0  1  0  1  0  0  0  0  0  0
    2.7338    6.9425    5.3977 H   0  0  0  1  0  1  0  0  0  0  0  0
   -0.1661    4.3706    8.2791 H   0  0  0  1  0  1  0  0  0  0  0  0
   -0.9590    1.8661    4.4253 H   0  0  0  1  0  1  0  0  0  0  0  0
    2.8338    4.9188    7.5450 H   0  0  0  1  0  1  0  0  0  0  0  0
    3.6919    4.9002    5.9667 H   0  0  0  1  0  1  0  0  0  0  0  0
    1.5089    7.7950    9.2019 H   0  0  0  1  0  1  0  0  0  0  0  0
    0.8217    6.5239    7.6263 H   0  0  0  1  0  1  0  0  0  0  0  0
    0.4348    6.5267    5.8716 H   0  0  0  1  0  1  0  0  0  0  0  0
    2.4381    4.3750    3.9080 H   0  0  0  1  0  1  0  0  0  0  0  0
   -0.2137    8.6243    7.0083 H   0  0  0  1  0  1  0  0  0  0  0  0
    0.9974    8.8751    5.7050 H   0  0  0  1  0  1  0  0  0  0  0  0
    1.6289   10.2616    7.5592 H   0  0  0  1  0  1  0  0  0  0  0  0
   -0.7480    8.3814    8.8389 H   0  0  0  1  0  1  0  0  0  0  0  0
   -0.3792   10.0414    9.4177 H   0  0  0  1  0  1  0  0  0  0  0  0
    0.2234    9.1328   11.6383 H   0  0  0  1  0  1  0  0  0  0  0  0
   -0.1432    7.4727   11.0601 H   0  0  0  1  0  1  0  0  0  0  0  0
   -1.4565    8.6910   11.1840 H   0  0  0  1  0  1  0  0  0  0  0  0
    2.2258   10.5551   10.0311 H   0  0  0  1  0  1  0  0  0  0  0  0
    3.3132    9.1251    9.9773 H   0  0  0  1  0  1  0  0  0  0  0  0
    2.5544    9.5665   12.2857 H   0  0  0  1  0  1  0  0  0  0  0  0
    1.9052    8.0020   11.6882 H   0  0  0  1  0  1  0  0  0  0  0  0
    0.8428    9.4484   11.7537 H   0  0  0  1  0  1  0  0  0  0  0  0
    3.7988    9.1848    8.2693 H   0  0  0  1  0  1  0  0  0  0  0  0
    3.5123    9.2299    6.4961 H   0  0  0  1  0  1  0  0  0  0  0  0
    4.4501    7.0876    7.1265 H   0  0  0  1  0  1  0  0  0  0  0  0
    3.1629    6.8478    8.3574 H   0  0  0  1  0  1  0  0  0  0  0  0
   -0.0930    2.4681   -0.4326 H   0  0  0  1  0  1  0  0  0  0  0  0
    0.9793    1.0697   -0.0839 H   0  0  0  1  0  1  0  0  0  0  0  0
    1.9462    2.6084   -1.5198 H   0  0  0  1  0  1  0  0  0  0  0  0
  1  6  1  0  0  0  0
  1  7  1  0  0  0  0
  1 18  1  0  0  0  0
  1 25  1  0  0  0  0
  2 12  1  0  0  0  0
  2 13  1  0  0  0  0
  2 15  1  0  0  0  0
  2 30  1  0  0  0  0
  3  5  2  0  0  0  0
  3  8  1  0  0  0  0
  3 19  1  0  0  0  0
  4  6  1  0  0  0  0
  4  8  2  0  0  0  0
  4 10  1  0  0  0  0
  5  9  1  0  0  0  0
  5 27  1  0  0  0  0
  6 28  1  0  0  0  0
  6 29  1  0  0  0  0
  7 11  1  0  0  0  0
  7 31  1  0  0  0  0
  7 32  1  0  0  0  0
  8 33  1  0  0  0  0
  9 10  2  0  0  0  0
  9 24  1  0  0  0  0
 10 22  1  0  0  0  0
 11 12  1  0  0  0  0
 11 34  1  0  0  0  0
 11 35  1  0  0  0  0
 12 17  1  0  0  0  0
 12 36  1  0  0  0  0
 13 14  1  0  0  0  0
 13 37  1  0  0  0  0
 13 38  1  0  0  0  0
 14 39  1  0  0  0  0
 14 40  1  0  0  0  0
 14 41  1  0  0  0  0
 15 16  1  0  0  0  0
 15 42  1  0  0  0  0
 15 43  1  0  0  0  0
 16 44  1  0  0  0  0
 16 45  1  0  0  0  0
 16 46  1  0  0  0  0
 17 18  1  0  0  0  0
 17 47  1  0  0  0  0
 17 48  1  0  0  0  0
 18 49  1  0  0  0  0
 18 50  1  0  0  0  0
 19 20  3  0  0  0  0
 20 21  1  0  0  0  0
 21 23  1  0  0  0  0
 21 51  1  0  0  0  0
 21 52  1  0  0  0  0
 22 26  1  0  0  0  0
 23 53  1  0  0  0  0
M  END
> <ConfScore>
-0.260748 

$$$$
4agn


 53 54  0  0  0  0  0  0  0  0999 V2000
    2.5209    6.6299    6.3322 N   0  3  0  1  0  4  0  0  0  0  0  0
    1.3416    8.7866    9.1336 N   0  3  0  1  0  4  0  0  0  0  0  0
    0.8354    2.9609    4.0565 C   0  0  0  1  0  3  0  0  0  0  0  0
    1.6889    4.2140    5.9084 C   0  0  0  1  0  3  0  0  0  0  0  0
   -0.2115    2.5307    4.8416 C   0  0  0  1  0  3  0  0  0  0  0  0
    2.7438    5.1386    6.4710 C   0  0  0  1  0  4  0  0  0  0  0  0
    1.0783    6.9623    6.6507 C   0  0  0  1  0  4  0  0  0  0  0  0
    1.7723    3.8147    4.5844 C   0  0  0  1  0  3  0  0  0  0  0  0
   -0.3186    2.9519    6.1615 C   0  0  0  1  0  3  0  0  0  0  0  0
    0.6294    3.7977    6.6969 C   0  0  0  1  0  3  0  0  0  0  0  0
    0.8308    8.4545    6.7078 C   0  0  0  1  0  4  0  0  0  0  0  0
    1.7396    9.1749    7.6909 C   0  0  0  1  0  4  0  0  0  0  0  0
   -0.1208    8.9765    9.5180 C   0  0  0  1  0  4  0  0  0  0  0  0
   -0.3929    8.5382   10.9495 C   0  0  0  1  0  4  0  0  0  0  0  0
    2.2813    9.4622   10.1529 C   0  0  0  1  0  4  0  0  0  0  0  0
    1.8673    9.0942   11.5681 C   0  0  0  1  0  4  0  0  0  0  0  0
    3.1859    8.7850    7.4475 C   0  0  0  1  0  4  0  0  0  0  0  0
    3.3964    7.2849    7.3752 C   0  0  0  1  0  4  0  0  0  0  0  0
    0.9457    2.5214    2.7014 C   0  0  0  1  0  2  0  0  0  0  0  0
    1.0468    2.1580    1.5627 C   0  0  0  1  0  2  0  0  0  0  0  0
    1.1671    1.7125    0.1734 C   0  0  0  1  0  4  0  0  0  0  0  0
    0.5247    4.2200    7.9897 O   0  0  0  1  0  2  0  0  0  0  0  0
    2.3209    2.2865   -0.4296 O   0  0  0  1  0  2  0  0  0  0  0  0
   -1.9498    2.2897    7.3592 I   0  0  0  1  0  1  0  0  0  0  0  0
    2.7338    6.9425    5.3977 H   0  0  0  1  0  1  0  0  0  0  0  0
   -0.3171    4.6411    8.1173 H   0  0  0  1  0  1  0  0  0  0  0  0
   -0.9554    1.8604    4.4278 H   0  0  0  1  0  1  0  0  0  0  0  0
    2.8338    4.9188    7.5450 H   0  0  0  1  0  1  0  0  0  0  0  0
    3.6919    4.9002    5.9667 H   0  0  0  1  0  1  0  0  0  0  0  0
    1.5089    7.7950    9.2019 H   0  0  0  1  0  1  0  0  0  0  0  0
    0.8217    6.5239    7.6263 H   0  0  0  1  0  1  0  0  0  0  0  0
    0.4348    6.5267    5.8716 H   0  0  0  1  0  1  0  0  0  0  0  0
    2.5818    4.1785    3.9615 H   0  0  0  1  0  1  0  0  0  0  0  0
   -0.2137    8.6243    7.0083 H   0  0  0  1  0  1  0  0  0  0  0  0
    0.9974    8.8751    5.7050 H   0  0  0  1  0  1  0  0  0  0  0  0
    1.6289   10.2616    7.5592 H   0  0  0  1  0  1  0  0  0  0  0  0
   -0.7480    8.3814    8.8389 H   0  0  0  1  0  1  0  0  0  0  0  0
   -0.3792   10.0414    9.4177 H   0  0  0  1  0  1  0  0  0  0  0  0
   -1.4517    8.7084   11.1900 H   0  0  0  1  0  1  0  0  0  0  0  0
    0.2380    9.1204   11.6371 H   0  0  0  1  0  1  0  0  0  0  0  0
   -0.1600    7.4686   11.0561 H   0  0  0  1  0  1  0  0  0  0  0  0
    2.2258   10.5551   10.0311 H   0  0  0  1  0  1  0  0  0  0  0  0
    3.3132    9.1251    9.9773 H   0  0  0  1  0  1  0  0  0  0  0  0
    2.5544    9.5665   12.2857 H   0  0  0  1  0  1  0  0  0  0  0  0
    1.9052    8.0020   11.6882 H   0  0  0  1  0  1  0  0  0  0  0  0
    0.8428    9.4484   11.7537 H   0  0  0  1  0  1  0  0  0  0  0  0
    3.7988    9.1848    8.2693 H   0  0  0  1  0  1  0  0  0  0  0  0
    3.5123    9.2299    6.4961 H   0  0  0  1  0  1  0  0  0  0  0  0
    4.4501    7.0876    7.1265 H   0  0  0  1  0  1  0  0  0  0  0  0
    3.1629    6.8478    8.3574 H   0  0  0  1  0  1  0  0  0  0  0  0
    0.2728    2.0226   -0.3864 H   0  0  0  1  0  1  0  0  0  0  0  0
    1.2526    0.6157    0.1499 H   0  0  0  1  0  1  0  0  0  0  0  0
    2.3870    1.9898   -1.3296 H   0  0  0  1  0  1  0  0  0  0  0  0
  1  6  1  0  0  0  0
  1  7  1  0  0  0  0
  1 18  1  0  0  0  0
  1 25  1  0  0  0  0
  2 12  1  0  0  0  0
  2 13  1  0  0  0  0
  2 15  1  0  0  0  0
  2 30  1  0  0  0  0
  3  5  2  0  0  0  0
  3  8  1  0  0  0  0
  3 19  1  0  0  0  0
  4  6  1  0  0  0  0
  4  8  2  0  0  0  0
  4 10  1  0  0  0  0
  5  9  1  0  0  0  0
  5 27  1  0  0  0  0
  6 28  1  0  0  0  0
  6 29  1  0  0  0  0
  7 11  1  0  0  0  0
  7 31  1  0  0  0  0
  7 32  1  0  0  0  0
  8 33  1  0  0  0  0
  9 10  2  0  0  0  0
  9 24  1  0  0  0  0
 10 22  1  0  0  0  0
 11 12  1  0  0  0  0
 11 34  1  0  0  0  0
 11 35  1  0  0  0  0
 12 17  1  0  0  0  0
 12 36  1  0  0  0  0
 13 14  1  0  0  0  0
 13 37  1  0  0  0  0
 13 38  1  0  0  0  0
 14 39  1  0  0  0  0
 14 40  1  0  0  0  0
 14 41  1  0  0  0  0
 15 16  1  0  0  0  0
 15 42  1  0  0  0  0
 15 43  1  0  0  0  0
 16 44  1  0  0  0  0
 16 45  1  0  0  0  0
 16 46  1  0  0  0  0
 17 18  1  0  0  0  0
 17 47  1  0  0  0  0
 17 48  1  0  0  0  0
 18 49  1  0  0  0  0
 18 50  1  0  0  0  0
 19 20  3  0  0  0  0
 20 21  1  0  0  0  0
 21 23  1  0  0  0  0
 21 51  1  0  0  0  0
 21 52  1  0  0  0  0
 22 26  1  0  0  0  0
 23 53  1  0  0  0  0
M  END
> <ConfScore>
-0.260748 

$$$$
4agn


 53 54  0  0  0  0  0  0  0  0999 V2000
    5.4320    2.2550   28.3390 N   0  3  0  1  0  4  0  0  0  0  0  0
    4.8087   -1.3149   27.7656 N   0  3  0  1  0  4  0  0  0  0  0  0
    8.8792    0.4144   30.1205 C   0  0  0  1  0  3  0  0  0  0  0  0
    7.7362    2.3952   29.4147 C   0  0  0  1  0  3  0  0  0  0  0  0
   10.0544    1.1294   30.1934 C   0  0  0  1  0  3  0  0  0  0  0  0
    6.4640    3.0610   28.9950 C   0  0  0  1  0  4  0  0  0  0  0  0
    6.0520    1.4770   27.2550 C   0  0  0  1  0  4  0  0  0  0  0  0
    7.7205    1.0509   29.7496 C   0  0  0  1  0  3  0  0  0  0  0  0
   10.0716    2.4850   29.8889 C   0  0  0  1  0  3  0  0  0  0  0  0
    8.9116    3.1221   29.5025 C   0  0  0  1  0  3  0  0  0  0  0  0
    4.9600    0.8100   26.4490 C   0  0  0  1  0  4  0  0  0  0  0  0
    4.0370   -0.0500   27.3240 C   0  0  0  1  0  4  0  0  0  0  0  0
    5.7162   -1.1768   28.9821 C   0  0  0  1  0  4  0  0  0  0  0  0
    6.4132   -2.4861   29.3217 C   0  0  0  1  0  4  0  0  0  0  0  0
    5.5636   -1.9311   26.5702 C   0  0  0  1  0  4  0  0  0  0  0  0
    6.7269   -1.0381   26.1714 C   0  0  0  1  0  4  0  0  0  0  0  0
    3.5580    0.6920   28.5700 C   0  0  0  1  0  4  0  0  0  0  0  0
    4.7240    1.3610   29.2750 C   0  0  0  1  0  4  0  0  0  0  0  0
    8.8662   -0.9808   30.4287 C   0  0  0  1  0  2  0  0  0  0  0  0
    8.8506   -2.1538   30.6787 C   0  0  0  1  0  2  0  0  0  0  0  0
    8.8332   -3.5849   30.9869 C   0  0  0  1  0  4  0  0  0  0  0  0
    8.9216    4.4543   29.2098 O   0  0  0  1  0  2  0  0  0  0  0  0
    8.2220   -4.3097   29.9260 O   0  0  0  1  0  2  0  0  0  0  0  0
   11.8928    3.5805   30.0194 I   0  0  0  1  0  1  0  0  0  0  0  0
    4.7370    2.8836   27.9673 H   0  0  0  1  0  1  0  0  0  0  0  0
    9.2619    4.9385   29.9528 H   0  0  0  1  0  1  0  0  0  0  0  0
   10.9702    0.6320   30.4897 H   0  0  0  1  0  1  0  0  0  0  0  0
    6.0111    3.4930   29.8995 H   0  0  0  1  0  1  0  0  0  0  0  0
    6.7355    3.8682   28.2989 H   0  0  0  1  0  1  0  0  0  0  0  0
    4.1022   -1.9819   28.0340 H   0  0  0  1  0  1  0  0  0  0  0  0
    6.7161    0.7114   27.6825 H   0  0  0  1  0  1  0  0  0  0  0  0
    6.6345    2.1472   26.6052 H   0  0  0  1  0  1  0  0  0  0  0  0
    6.7881    0.4985   29.7188 H   0  0  0  1  0  1  0  0  0  0  0  0
    5.4247    0.1677   25.6863 H   0  0  0  1  0  1  0  0  0  0  0  0
    4.3577    1.5878   25.9566 H   0  0  0  1  0  1  0  0  0  0  0  0
    3.1596   -0.3441   26.7290 H   0  0  0  1  0  1  0  0  0  0  0  0
    5.1109   -0.8625   29.8444 H   0  0  0  1  0  1  0  0  0  0  0  0
    6.4794   -0.4128   28.7712 H   0  0  0  1  0  1  0  0  0  0  0  0
    7.0556   -2.3419   30.2017 H   0  0  0  1  0  1  0  0  0  0  0  0
    7.0274   -2.8066   28.4673 H   0  0  0  1  0  1  0  0  0  0  0  0
    5.6596   -3.2569   29.5401 H   0  0  0  1  0  1  0  0  0  0  0  0
    4.8748   -2.0324   25.7173 H   0  0  0  1  0  1  0  0  0  0  0  0
    5.9471   -2.9223   26.8523 H   0  0  0  1  0  1  0  0  0  0  0  0
    7.2686   -1.4956   25.3303 H   0  0  0  1  0  1  0  0  0  0  0  0
    7.4082   -0.9209   27.0263 H   0  0  0  1  0  1  0  0  0  0  0  0
    6.3449   -0.0522   25.8688 H   0  0  0  1  0  1  0  0  0  0  0  0
    3.0831   -0.0243   29.2570 H   0  0  0  1  0  1  0  0  0  0  0  0
    2.8262    1.4584   28.2752 H   0  0  0  1  0  1  0  0  0  0  0  0
    4.3471    1.9485   30.1257 H   0  0  0  1  0  1  0  0  0  0  0  0
    5.4196    0.5908   29.6400 H   0  0  0  1  0  1  0  0  0  0  0  0
    8.2649   -3.7500   31.9138 H   0  0  0  1  0  1  0  0  0  0  0  0
    9.8660   -3.9398   31.1216 H   0  0  0  1  0  1  0  0  0  0  0  0
    8.2170   -5.2355   30.1386 H   0  0  0  1  0  1  0  0  0  0  0  0
  1  6  1  0  0  0  0
  1  7  1  0  0  0  0
  1 18  1  0  0  0  0
  1 25  1  0  0  0  0
  2 12  1  0  0  0  0
  2 13  1  0  0  0  0
  2 15  1  0  0  0  0
  2 30  1  0  0  0  0
  3  5  2  0  0  0  0
  3  8  1  0  0  0  0
  3 19  1  0  0  0  0
  4  6  1  0  0  0  0
  4  8  2  0  0  0  0
  4 10  1  0  0  0  0
  5  9  1  0  0  0  0
  5 27  1  0  0  0  0
  6 28  1  0  0  0  0
  6 29  1  0  0  0  0
  7 11  1  0  0  0  0
  7 31  1  0  0  0  0
  7 32  1  0  0  0  0
  8 33  1  0  0  0  0
  9 10  2  0  0  0  0
  9 24  1  0  0  0  0
 10 22  1  0  0  0  0
 11 12  1  0  0  0  0
 11 34  1  0  0  0  0
 11 35  1  0  0  0  0
 12 17  1  0  0  0  0
 12 36  1  0  0  0  0
 13 14  1  0  0  0  0
 13 37  1  0  0  0  0
 13 38  1  0  0  0  0
 14 39  1  0  0  0  0
 14 40  1  0  0  0  0
 14 41  1  0  0  0  0
 15 16  1  0  0  0  0
 15 42  1  0  0  0  0
 15 43  1  0  0  0  0
 16 44  1  0  0  0  0
 16 45  1  0  0  0  0
 16 46  1  0  0  0  0
 17 18  1  0  0  0  0
 17 47  1  0  0  0  0
 17 48  1  0  0  0  0
 18 49  1  0  0  0  0
 18 50  1  0  0  0  0
 19 20  3  0  0  0  0
 20 21  1  0  0  0  0
 21 23  1  0  0  0  0
 21 51  1  0  0  0  0
 21 52  1  0  0  0  0
 22 26  1  0  0  0  0
 23 53  1  0  0  0  0
M  END
> <ConfScore>
-0.253494 

$$$$
4agn


 53 54  0  0  0  0  0  0  0  0999 V2000
   90.4980   98.3810  -44.6910 N   0  3  0  1  0  4  0  0  0  0  0  0
   92.0509  102.3792  -44.2366 N   0  3  0  1  0  4  0  0  0  0  0  0
   86.2995   96.6593  -46.3918 C   0  0  0  1  0  3  0  0  0  0  0  0
   88.4020   97.1986  -45.3100 C   0  0  0  1  0  3  0  0  0  0  0  0
   85.6001   97.2892  -45.3494 C   0  0  0  1  0  3  0  0  0  0  0  0
   89.9050   97.1660  -45.3350 C   0  0  0  1  0  4  0  0  0  0  0  0
   89.5430   99.5450  -44.7170 C   0  0  0  1  0  4  0  0  0  0  0  0
   87.7065   96.6176  -46.3713 C   0  0  0  1  0  3  0  0  0  0  0  0
   86.3351   97.8654  -44.2942 C   0  0  0  1  0  3  0  0  0  0  0  0
   87.7340   97.8452  -44.2411 C   0  0  0  1  0  3  0  0  0  0  0  0
   90.1750  100.7310  -44.0050 C   0  0  0  1  0  4  0  0  0  0  0  0
   91.4300  101.0810  -44.8020 C   0  0  0  1  0  4  0  0  0  0  0  0
   91.1600  103.6155  -44.2171 C   0  0  0  1  0  4  0  0  0  0  0  0
   91.8783  104.8235  -43.6338 C   0  0  0  1  0  4  0  0  0  0  0  0
   93.4022  102.6729  -44.9196 C   0  0  0  1  0  4  0  0  0  0  0  0
   93.1769  103.0946  -46.3622 C   0  0  0  1  0  4  0  0  0  0  0  0
   92.4510   99.9400  -44.6950 C   0  0  0  1  0  4  0  0  0  0  0  0
   91.8210   98.7070  -45.3220 C   0  0  0  1  0  4  0  0  0  0  0  0
   85.6320   96.0375  -47.4917 C   0  0  0  1  0  2  0  0  0  0  0  0
   85.0807   95.5130  -48.4189 C   0  0  0  1  0  2  0  0  0  0  0  0
   84.4046   94.8738  -49.5492 C   0  0  0  1  0  4  0  0  0  0  0  0
   88.4517   98.3846  -43.2141 O   0  0  0  1  0  2  0  0  0  0  0  0
   85.3607   94.3209  -50.4462 O   0  0  0  1  0  2  0  0  0  0  0  0
   85.2930   98.8579  -42.7249 I   0  0  0  1  0  1  0  0  0  0  0  0
   90.6653   98.1804  -43.7174 H   0  0  0  1  0  1  0  0  0  0  0  0
   87.8577   98.7767  -42.5852 H   0  0  0  1  0  1  0  0  0  0  0  0
   84.5175   97.3308  -45.3563 H   0  0  0  1  0  1  0  0  0  0  0  0
   90.2507   96.2723  -44.7950 H   0  0  0  1  0  1  0  0  0  0  0  0
   90.2427   97.1167  -46.3807 H   0  0  0  1  0  1  0  0  0  0  0  0
   92.2547  102.1818  -43.2695 H   0  0  0  1  0  1  0  0  0  0  0  0
   88.6095   99.2654  -44.2068 H   0  0  0  1  0  1  0  0  0  0  0  0
   89.3241   99.8172  -45.7604 H   0  0  0  1  0  1  0  0  0  0  0  0
   88.2478   96.1370  -47.1785 H   0  0  0  1  0  1  0  0  0  0  0  0
   90.4413  100.4593  -42.9728 H   0  0  0  1  0  1  0  0  0  0  0  0
   89.4801  101.5838  -43.9926 H   0  0  0  1  0  1  0  0  0  0  0  0
   91.1611  101.2321  -45.8581 H   0  0  0  1  0  1  0  0  0  0  0  0
   90.2695  103.4035  -43.6081 H   0  0  0  1  0  1  0  0  0  0  0  0
   90.8530  103.8486  -45.2476 H   0  0  0  1  0  1  0  0  0  0  0  0
   91.2020  105.6898  -43.6390 H   0  0  0  1  0  1  0  0  0  0  0  0
   92.7681  105.0487  -44.2400 H   0  0  0  1  0  1  0  0  0  0  0  0
   92.1854  104.6041  -42.6007 H   0  0  0  1  0  1  0  0  0  0  0  0
   94.0253  101.7654  -44.8999 H   0  0  0  1  0  1  0  0  0  0  0  0
   93.9153  103.4825  -44.3807 H   0  0  0  1  0  1  0  0  0  0  0  0
   94.1450  103.3187  -46.8341 H   0  0  0  1  0  1  0  0  0  0  0  0
   92.5408  103.9910  -46.3864 H   0  0  0  1  0  1  0  0  0  0  0  0
   92.6823  102.2788  -46.9093 H   0  0  0  1  0  1  0  0  0  0  0  0
   92.6879   99.7452  -43.6383 H   0  0  0  1  0  1  0  0  0  0  0  0
   93.3715  100.2074  -45.2344 H   0  0  0  1  0  1  0  0  0  0  0  0
   91.6686   98.8910  -46.3962 H   0  0  0  1  0  1  0  0  0  0  0  0
   92.5004   97.8520  -45.1886 H   0  0  0  1  0  1  0  0  0  0  0  0
   83.7988   95.6221  -50.0806 H   0  0  0  1  0  1  0  0  0  0  0  0
   83.7512   94.0715  -49.1748 H   0  0  0  1  0  1  0  0  0  0  0  0
   84.9094   93.9100  -51.1740 H   0  0  0  1  0  1  0  0  0  0  0  0
  1  6  1  0  0  0  0
  1  7  1  0  0  0  0
  1 18  1  0  0  0  0
  1 25  1  0  0  0  0
  2 12  1  0  0  0  0
  2 13  1  0  0  0  0
  2 15  1  0  0  0  0
  2 30  1  0  0  0  0
  3  5  2  0  0  0  0
  3  8  1  0  0  0  0
  3 19  1  0  0  0  0
  4  6  1  0  0  0  0
  4  8  2  0  0  0  0
  4 10  1  0  0  0  0
  5  9  1  0  0  0  0
  5 27  1  0  0  0  0
  6 28  1  0  0  0  0
  6 29  1  0  0  0  0
  7 11  1  0  0  0  0
  7 31  1  0  0  0  0
  7 32  1  0  0  0  0
  8 33  1  0  0  0  0
  9 10  2  0  0  0  0
  9 24  1  0  0  0  0
 10 22  1  0  0  0  0
 11 12  1  0  0  0  0
 11 34  1  0  0  0  0
 11 35  1  0  0  0  0
 12 17  1  0  0  0  0
 12 36  1  0  0  0  0
 13 14  1  0  0  0  0
 13 37  1  0  0  0  0
 13 38  1  0  0  0  0
 14 39  1  0  0  0  0
 14 40  1  0  0  0  0
 14 41  1  0  0  0  0
 15 16  1  0  0  0  0
 15 42  1  0  0  0  0
 15 43  1  0  0  0  0
 16 44  1  0  0  0  0
 16 45  1  0  0  0  0
 16 46  1  0  0  0  0
 17 18  1  0  0  0  0
 17 47  1  0  0  0  0
 17 48  1  0  0  0  0
 18 49  1  0  0  0  0
 18 50  1  0  0  0  0
 19 20  3  0  0  0  0
 20 21  1  0  0  0  0
 21 23  1  0  0  0  0
 21 51  1  0  0  0  0
 21 52  1  0  0  0  0
 22 26  1  0  0  0  0
 23 53  1  0  0  0  0
M  END
> <ConfScore>
-0.237732 

$$$$
4agn


 53 54  0  0  0  0  0  0  0  0999 V2000
   90.4980   98.3810  -44.6910 N   0  3  0  1  0  4  0  0  0  0  0  0
   92.0509  102.3792  -44.2366 N   0  3  0  1  0  4  0  0  0  0  0  0
   86.2995   96.6593  -46.3918 C   0  0  0  1  0  3  0  0  0  0  0  0
   88.4020   97.1986  -45.3100 C   0  0  0  1  0  3  0  0  0  0  0  0
   85.6001   97.2892  -45.3494 C   0  0  0  1  0  3  0  0  0  0  0  0
   89.9050   97.1660  -45.3350 C   0  0  0  1  0  4  0  0  0  0  0  0
   89.5430   99.5450  -44.7170 C   0  0  0  1  0  4  0  0  0  0  0  0
   87.7065   96.6176  -46.3713 C   0  0  0  1  0  3  0  0  0  0  0  0
   86.3351   97.8654  -44.2942 C   0  0  0  1  0  3  0  0  0  0  0  0
   87.7340   97.8452  -44.2411 C   0  0  0  1  0  3  0  0  0  0  0  0
   90.1750  100.7310  -44.0050 C   0  0  0  1  0  4  0  0  0  0  0  0
   91.4300  101.0810  -44.8020 C   0  0  0  1  0  4  0  0  0  0  0  0
   91.1600  103.6155  -44.2171 C   0  0  0  1  0  4  0  0  0  0  0  0
   91.8783  104.8235  -43.6338 C   0  0  0  1  0  4  0  0  0  0  0  0
   93.4022  102.6729  -44.9196 C   0  0  0  1  0  4  0  0  0  0  0  0
   93.1769  103.0946  -46.3622 C   0  0  0  1  0  4  0  0  0  0  0  0
   92.4510   99.9400  -44.6950 C   0  0  0  1  0  4  0  0  0  0  0  0
   91.8210   98.7070  -45.3220 C   0  0  0  1  0  4  0  0  0  0  0  0
   85.6320   96.0375  -47.4917 C   0  0  0  1  0  2  0  0  0  0  0  0
   85.0628   95.5183  -48.4110 C   0  0  0  1  0  2  0  0  0  0  0  0
   84.3712   94.8836  -49.5345 C   0  0  0  1  0  4  0  0  0  0  0  0
   88.4517   98.3846  -43.2141 O   0  0  0  1  0  2  0  0  0  0  0  0
   82.9628   95.0235  -49.3881 O   0  0  0  1  0  2  0  0  0  0  0  0
   85.2930   98.8579  -42.7249 I   0  0  0  1  0  1  0  0  0  0  0  0
   90.6653   98.1804  -43.7174 H   0  0  0  1  0  1  0  0  0  0  0  0
   87.8577   98.7767  -42.5852 H   0  0  0  1  0  1  0  0  0  0  0  0
   84.5175   97.3308  -45.3563 H   0  0  0  1  0  1  0  0  0  0  0  0
   90.2507   96.2723  -44.7950 H   0  0  0  1  0  1  0  0  0  0  0  0
   90.2427   97.1167  -46.3807 H   0  0  0  1  0  1  0  0  0  0  0  0
   92.2547  102.1818  -43.2695 H   0  0  0  1  0  1  0  0  0  0  0  0
   88.6095   99.2654  -44.2068 H   0  0  0  1  0  1  0  0  0  0  0  0
   89.3241   99.8172  -45.7604 H   0  0  0  1  0  1  0  0  0  0  0  0
   88.2478   96.1370  -47.1785 H   0  0  0  1  0  1  0  0  0  0  0  0
   90.4413  100.4593  -42.9728 H   0  0  0  1  0  1  0  0  0  0  0  0
   89.4801  101.5838  -43.9926 H   0  0  0  1  0  1  0  0  0  0  0  0
   91.1611  101.2321  -45.8581 H   0  0  0  1  0  1  0  0  0  0  0  0
   90.2695  103.4035  -43.6081 H   0  0  0  1  0  1  0  0  0  0  0  0
   90.8530  103.8486  -45.2476 H   0  0  0  1  0  1  0  0  0  0  0  0
   91.2020  105.6898  -43.6390 H   0  0  0  1  0  1  0  0  0  0  0  0
   92.7681  105.0487  -44.2400 H   0  0  0  1  0  1  0  0  0  0  0  0
   92.1854  104.6041  -42.6007 H   0  0  0  1  0  1  0  0  0  0  0  0
   94.0253  101.7654  -44.8999 H   0  0  0  1  0  1  0  0  0  0  0  0
   93.9153  103.4825  -44.3807 H   0  0  0  1  0  1  0  0  0  0  0  0
   94.1450  103.3187  -46.8341 H   0  0  0  1  0  1  0  0  0  0  0  0
   92.5408  103.9910  -46.3864 H   0  0  0  1  0  1  0  0  0  0  0  0
   92.6823  102.2788  -46.9093 H   0  0  0  1  0  1  0  0  0  0  0  0
   92.6879   99.7452  -43.6383 H   0  0  0  1  0  1  0  0  0  0  0  0
   93.3715  100.2074  -45.2344 H   0  0  0  1  0  1  0  0  0  0  0  0
   91.6686   98.8910  -46.3962 H   0  0  0  1  0  1  0  0  0  0  0  0
   92.5004   97.8520  -45.1886 H   0  0  0  1  0  1  0  0  0  0  0  0
   84.6287   93.8149  -49.5627 H   0  0  0  1  0  1  0  0  0  0  0  0
   84.6882   95.3623  -50.4732 H   0  0  0  1  0  1  0  0  0  0  0  0
   82.5268   94.6078  -50.1226 H   0  0  0  1  0  1  0  0  0  0  0  0
  1  6  1  0  0  0  0
  1  7  1  0  0  0  0
  1 18  1  0  0  0  0
  1 25  1  0  0  0  0
  2 12  1  0  0  0  0
  2 13  1  0  0  0  0
  2 15  1  0  0  0  0
  2 30  1  0  0  0  0
  3  5  2  0  0  0  0
  3  8  1  0  0  0  0
  3 19  1  0  0  0  0
  4  6  1  0  0  0  0
  4  8  2  0  0  0  0
  4 10  1  0  0  0  0
  5  9  1  0  0  0  0
  5 27  1  0  0  0  0
  6 28  1  0  0  0  0
  6 29  1  0  0  0  0
  7 11  1  0  0  0  0
  7 31  1  0  0  0  0
  7 32  1  0  0  0  0
  8 33  1  0  0  0  0
  9 10  2  0  0  0  0
  9 24  1  0  0  0  0
 10 22  1  0  0  0  0
 11 12  1  0  0  0  0
 11 34  1  0  0  0  0
 11 35  1  0  0  0  0
 12 17  1  0  0  0  0
 12 36  1  0  0  0  0
 13 14  1  0  0  0  0
 13 37  1  0  0  0  0
 13 38  1  0  0  0  0
 14 39  1  0  0  0  0
 14 40  1  0  0  0  0
 14 41  1  0  0  0  0
 15 16  1  0  0  0  0
 15 42  1  0  0  0  0
 15 43  1  0  0  0  0
 16 44  1  0  0  0  0
 16 45  1  0  0  0  0
 16 46  1  0  0  0  0
 17 18  1  0  0  0  0
 17 47  1  0  0  0  0
 17 48  1  0  0  0  0
 18 49  1  0  0  0  0
 18 50  1  0  0  0  0
 19 20  3  0  0  0  0
 20 21  1  0  0  0  0
 21 23  1  0  0  0  0
 21 51  1  0  0  0  0
 21 52  1  0  0  0  0
 22 26  1  0  0  0  0
 23 53  1  0  0  0  0
M  END
> <ConfScore>
-0.237732 

$$$$
4agn


 53 54  0  0  0  0  0  0  0  0999 V2000
   90.4980   98.3810  -44.6910 N   0  3  0  1  0  4  0  0  0  0  0  0
   92.0509  102.3792  -44.2366 N   0  3  0  1  0  4  0  0  0  0  0  0
   91.0562   93.5609  -45.1084 C   0  0  0  1  0  3  0  0  0  0  0  0
   90.4953   95.8979  -44.7834 C   0  0  0  1  0  3  0  0  0  0  0  0
   91.5232   93.4879  -43.7859 C   0  0  0  1  0  3  0  0  0  0  0  0
   89.9050   97.1660  -45.3350 C   0  0  0  1  0  4  0  0  0  0  0  0
   89.5430   99.5450  -44.7170 C   0  0  0  1  0  4  0  0  0  0  0  0
   90.5377   94.7714  -45.6062 C   0  0  0  1  0  3  0  0  0  0  0  0
   91.4647   94.6449  -42.9838 C   0  0  0  1  0  3  0  0  0  0  0  0
   90.9542   95.8648  -43.4436 C   0  0  0  1  0  3  0  0  0  0  0  0
   90.1750  100.7310  -44.0050 C   0  0  0  1  0  4  0  0  0  0  0  0
   91.4300  101.0810  -44.8020 C   0  0  0  1  0  4  0  0  0  0  0  0
   91.1600  103.6155  -44.2171 C   0  0  0  1  0  4  0  0  0  0  0  0
   91.5047  104.5452  -43.0628 C   0  0  0  1  0  4  0  0  0  0  0  0
   93.4022  102.6729  -44.9196 C   0  0  0  1  0  4  0  0  0  0  0  0
   93.1970  103.6029  -46.1040 C   0  0  0  1  0  4  0  0  0  0  0  0
   92.4510   99.9400  -44.6950 C   0  0  0  1  0  4  0  0  0  0  0  0
   91.8210   98.7070  -45.3220 C   0  0  0  1  0  4  0  0  0  0  0  0
   91.0927   92.4396  -45.9933 C   0  0  0  1  0  2  0  0  0  0  0  0
   91.1191   91.5040  -46.7435 C   0  0  0  1  0  2  0  0  0  0  0  0
   91.1529   90.3600  -47.6565 C   0  0  0  1  0  4  0  0  0  0  0  0
   90.9110   96.9938  -42.6792 O   0  0  0  1  0  2  0  0  0  0  0  0
   90.6176   90.7250  -48.9232 O   0  0  0  1  0  2  0  0  0  0  0  0
   92.1329   94.5424  -40.9647 I   0  0  0  1  0  1  0  0  0  0  0  0
   90.6653   98.1804  -43.7174 H   0  0  0  1  0  1  0  0  0  0  0  0
   91.2529   96.8026  -41.8138 H   0  0  0  1  0  1  0  0  0  0  0  0
   91.9208   92.5607  -43.3907 H   0  0  0  1  0  1  0  0  0  0  0  0
   90.0974   97.2069  -46.4172 H   0  0  0  1  0  1  0  0  0  0  0  0
   88.8199   97.1614  -45.1549 H   0  0  0  1  0  1  0  0  0  0  0  0
   92.2547  102.1818  -43.2695 H   0  0  0  1  0  1  0  0  0  0  0  0
   88.6095   99.2654  -44.2068 H   0  0  0  1  0  1  0  0  0  0  0  0
   89.3241   99.8172  -45.7604 H   0  0  0  1  0  1  0  0  0  0  0  0
   90.1712   94.8275  -46.6251 H   0  0  0  1  0  1  0  0  0  0  0  0
   90.4413  100.4593  -42.9728 H   0  0  0  1  0  1  0  0  0  0  0  0
   89.4801  101.5838  -43.9926 H   0  0  0  1  0  1  0  0  0  0  0  0
   91.1611  101.2321  -45.8581 H   0  0  0  1  0  1  0  0  0  0  0  0
   90.1121  103.2981  -44.1169 H   0  0  0  1  0  1  0  0  0  0  0  0
   91.2893  104.1617  -45.1635 H   0  0  0  1  0  1  0  0  0  0  0  0
   90.8408  105.4207  -43.0866 H   0  0  0  1  0  1  0  0  0  0  0  0
   92.5500  104.8744  -43.1571 H   0  0  0  1  0  1  0  0  0  0  0  0
   91.3736  104.0113  -42.1102 H   0  0  0  1  0  1  0  0  0  0  0  0
   93.8451  101.7286  -45.2721 H   0  0  0  1  0  1  0  0  0  0  0  0
   94.0804  103.1495  -44.1971 H   0  0  0  1  0  1  0  0  0  0  0  0
   92.7388  104.5413  -45.7582 H   0  0  0  1  0  1  0  0  0  0  0  0
   92.5357  103.1204  -46.8379 H   0  0  0  1  0  1  0  0  0  0  0  0
   94.1683  103.8196  -46.5720 H   0  0  0  1  0  1  0  0  0  0  0  0
   92.6879   99.7452  -43.6383 H   0  0  0  1  0  1  0  0  0  0  0  0
   93.3715  100.2074  -45.2344 H   0  0  0  1  0  1  0  0  0  0  0  0
   91.6686   98.8910  -46.3962 H   0  0  0  1  0  1  0  0  0  0  0  0
   92.5004   97.8520  -45.1886 H   0  0  0  1  0  1  0  0  0  0  0  0
   90.5557   89.5395  -47.2330 H   0  0  0  1  0  1  0  0  0  0  0  0
   92.1942   90.0280  -47.7841 H   0  0  0  1  0  1  0  0  0  0  0  0
   90.6452   89.9747  -49.5052 H   0  0  0  1  0  1  0  0  0  0  0  0
  1  6  1  0  0  0  0
  1  7  1  0  0  0  0
  1 18  1  0  0  0  0
  1 25  1  0  0  0  0
  2 12  1  0  0  0  0
  2 13  1  0  0  0  0
  2 15  1  0  0  0  0
  2 30  1  0  0  0  0
  3  5  2  0  0  0  0
  3  8  1  0  0  0  0
  3 19  1  0  0  0  0
  4  6  1  0  0  0  0
  4  8  2  0  0  0  0
  4 10  1  0  0  0  0
  5  9  1  0  0  0  0
  5 27  1  0  0  0  0
  6 28  1  0  0  0  0
  6 29  1  0  0  0  0
  7 11  1  0  0  0  0
  7 31  1  0  0  0  0
  7 32  1  0  0  0  0
  8 33  1  0  0  0  0
  9 10  2  0  0  0  0
  9 24  1  0  0  0  0
 10 22  1  0  0  0  0
 11 12  1  0  0  0  0
 11 34  1  0  0  0  0
 11 35  1  0  0  0  0
 12 17  1  0  0  0  0
 12 36  1  0  0  0  0
 13 14  1  0  0  0  0
 13 37  1  0  0  0  0
 13 38  1  0  0  0  0
 14 39  1  0  0  0  0
 14 40  1  0  0  0  0
 14 41  1  0  0  0  0
 15 16  1  0  0  0  0
 15 42  1  0  0  0  0
 15 43  1  0  0  0  0
 16 44  1  0  0  0  0
 16 45  1  0  0  0  0
 16 46  1  0  0  0  0
 17 18  1  0  0  0  0
 17 47  1  0  0  0  0
 17 48  1  0  0  0  0
 18 49  1  0  0  0  0
 18 50  1  0  0  0  0
 19 20  3  0  0  0  0
 20 21  1  0  0  0  0
 21 23  1  0  0  0  0
 21 51  1  0  0  0  0
 21 52  1  0  0  0  0
 22 26  1  0  0  0  0
 23 53  1  0  0  0  0
M  END
> <ConfScore>
-0.219547 

$$$$
4agn


 53 54  0  0  0  0  0  0  0  0999 V2000
    5.4320    2.2550   28.3390 N   0  3  0  1  0  4  0  0  0  0  0  0
    4.8087   -1.3149   27.7656 N   0  3  0  1  0  4  0  0  0  0  0  0
    8.3637    5.5343   26.9026 C   0  0  0  1  0  3  0  0  0  0  0  0
    6.8799    4.3500   28.3599 C   0  0  0  1  0  3  0  0  0  0  0  0
    7.6810    6.7005   27.1698 C   0  0  0  1  0  3  0  0  0  0  0  0
    6.4640    3.0610   28.9950 C   0  0  0  1  0  4  0  0  0  0  0  0
    6.0520    1.4770   27.2550 C   0  0  0  1  0  4  0  0  0  0  0  0
    7.9745    4.3664   27.5108 C   0  0  0  1  0  3  0  0  0  0  0  0
    6.6014    6.6974   28.0445 C   0  0  0  1  0  3  0  0  0  0  0  0
    6.2007    5.5227   28.6447 C   0  0  0  1  0  3  0  0  0  0  0  0
    4.9600    0.8100   26.4490 C   0  0  0  1  0  4  0  0  0  0  0  0
    4.0370   -0.0500   27.3240 C   0  0  0  1  0  4  0  0  0  0  0  0
    5.7162   -1.1768   28.9821 C   0  0  0  1  0  4  0  0  0  0  0  0
    6.4000   -2.4904   29.3320 C   0  0  0  1  0  4  0  0  0  0  0  0
    5.5636   -1.9311   26.5702 C   0  0  0  1  0  4  0  0  0  0  0  0
    6.3385   -3.1590   27.0193 C   0  0  0  1  0  4  0  0  0  0  0  0
    3.5580    0.6920   28.5700 C   0  0  0  1  0  4  0  0  0  0  0  0
    4.7240    1.3610   29.2750 C   0  0  0  1  0  4  0  0  0  0  0  0
    9.4700    5.5399   25.9982 C   0  0  0  1  0  2  0  0  0  0  0  0
   10.3998    5.5346   25.2405 C   0  0  0  1  0  2  0  0  0  0  0  0
   11.5343    5.5318   24.3151 C   0  0  0  1  0  4  0  0  0  0  0  0
    5.1462    5.5156   29.5100 O   0  0  0  1  0  2  0  0  0  0  0  0
   12.0735    4.2200   24.2013 O   0  0  0  1  0  2  0  0  0  0  0  0
    5.5641    8.5102   28.4588 I   0  0  0  1  0  1  0  0  0  0  0  0
    4.7370    2.8836   27.9673 H   0  0  0  1  0  1  0  0  0  0  0  0
    5.3082    6.1362   30.2106 H   0  0  0  1  0  1  0  0  0  0  0  0
    7.9875    7.6251   26.6953 H   0  0  0  1  0  1  0  0  0  0  0  0
    7.3639    2.4334   29.0730 H   0  0  0  1  0  1  0  0  0  0  0  0
    6.0952    3.3010   30.0031 H   0  0  0  1  0  1  0  0  0  0  0  0
    4.1022   -1.9819   28.0340 H   0  0  0  1  0  1  0  0  0  0  0  0
    6.7161    0.7114   27.6825 H   0  0  0  1  0  1  0  0  0  0  0  0
    6.6345    2.1472   26.6052 H   0  0  0  1  0  1  0  0  0  0  0  0
    8.5269    3.4520   27.3256 H   0  0  0  1  0  1  0  0  0  0  0  0
    5.4247    0.1677   25.6863 H   0  0  0  1  0  1  0  0  0  0  0  0
    4.3577    1.5878   25.9566 H   0  0  0  1  0  1  0  0  0  0  0  0
    3.1596   -0.3441   26.7290 H   0  0  0  1  0  1  0  0  0  0  0  0
    5.1131   -0.8503   29.8414 H   0  0  0  1  0  1  0  0  0  0  0  0
    6.4870   -0.4219   28.7665 H   0  0  0  1  0  1  0  0  0  0  0  0
    7.0428   -2.3460   30.2117 H   0  0  0  1  0  1  0  0  0  0  0  0
    7.0120   -2.8231   28.4807 H   0  0  0  1  0  1  0  0  0  0  0  0
    5.6386   -3.2521   29.5552 H   0  0  0  1  0  1  0  0  0  0  0  0
    6.2658   -1.1885   26.1607 H   0  0  0  1  0  1  0  0  0  0  0  0
    4.8418   -2.2216   25.7931 H   0  0  0  1  0  1  0  0  0  0  0  0
    6.8582   -3.6005   26.1560 H   0  0  0  1  0  1  0  0  0  0  0  0
    5.6421   -3.8959   27.4444 H   0  0  0  1  0  1  0  0  0  0  0  0
    7.0756   -2.8682   27.7818 H   0  0  0  1  0  1  0  0  0  0  0  0
    3.0831   -0.0243   29.2570 H   0  0  0  1  0  1  0  0  0  0  0  0
    2.8262    1.4584   28.2752 H   0  0  0  1  0  1  0  0  0  0  0  0
    4.3471    1.9485   30.1257 H   0  0  0  1  0  1  0  0  0  0  0  0
    5.4196    0.5908   29.6400 H   0  0  0  1  0  1  0  0  0  0  0  0
   12.3118    6.2123   24.6914 H   0  0  0  1  0  1  0  0  0  0  0  0
   11.1961    5.8727   23.3251 H   0  0  0  1  0  1  0  0  0  0  0  0
   12.8080    4.2322   23.5989 H   0  0  0  1  0  1  0  0  0  0  0  0
  1  6  1  0  0  0  0
  1  7  1  0  0  0  0
  1 18  1  0  0  0  0
  1 25  1  0  0  0  0
  2 12  1  0  0  0  0
  2 13  1  0  0  0  0
  2 15  1  0  0  0  0
  2 30  1  0  0  0  0
  3  5  2  0  0  0  0
  3  8  1  0  0  0  0
  3 19  1  0  0  0  0
  4  6  1  0  0  0  0
  4  8  2  0  0  0  0
  4 10  1  0  0  0  0
  5  9  1  0  0  0  0
  5 27  1  0  0  0  0
  6 28  1  0  0  0  0
  6 29  1  0  0  0  0
  7 11  1  0  0  0  0
  7 31  1  0  0  0  0
  7 32  1  0  0  0  0
  8 33  1  0  0  0  0
  9 10  2  0  0  0  0
  9 24  1  0  0  0  0
 10 22  1  0  0  0  0
 11 12  1  0  0  0  0
 11 34  1  0  0  0  0
 11 35  1  0  0  0  0
 12 17  1  0  0  0  0
 12 36  1  0  0  0  0
 13 14  1  0  0  0  0
 13 37  1  0  0  0  0
 13 38  1  0  0  0  0
 14 39  1  0  0  0  0
 14 40  1  0  0  0  0
 14 41  1  0  0  0  0
 15 16  1  0  0  0  0
 15 42  1  0  0  0  0
 15 43  1  0  0  0  0
 16 44  1  0  0  0  0
 16 45  1  0  0  0  0
 16 46  1  0  0  0  0
 17 18  1  0  0  0  0
 17 47  1  0  0  0  0
 17 48  1  0  0  0  0
 18 49  1  0  0  0  0
 18 50  1  0  0  0  0
 19 20  3  0  0  0  0
 20 21  1  0  0  0  0
 21 23  1  0  0  0  0
 21 51  1  0  0  0  0
 21 52  1  0  0  0  0
 22 26  1  0  0  0  0
 23 53  1  0  0  0  0
M  END
> <ConfScore>
-0.21448 

$$$$
4agn


 53 54  0  0  0  0  0  0  0  0999 V2000
    5.4320    2.2550   28.3390 N   0  3  0  1  0  4  0  0  0  0  0  0
    4.8087   -1.3149   27.7656 N   0  3  0  1  0  4  0  0  0  0  0  0
    8.3637    5.5343   26.9026 C   0  0  0  1  0  3  0  0  0  0  0  0
    6.8799    4.3500   28.3599 C   0  0  0  1  0  3  0  0  0  0  0  0
    7.6810    6.7005   27.1698 C   0  0  0  1  0  3  0  0  0  0  0  0
    6.4640    3.0610   28.9950 C   0  0  0  1  0  4  0  0  0  0  0  0
    6.0520    1.4770   27.2550 C   0  0  0  1  0  4  0  0  0  0  0  0
    7.9745    4.3664   27.5108 C   0  0  0  1  0  3  0  0  0  0  0  0
    6.6014    6.6974   28.0445 C   0  0  0  1  0  3  0  0  0  0  0  0
    6.2007    5.5227   28.6447 C   0  0  0  1  0  3  0  0  0  0  0  0
    4.9600    0.8100   26.4490 C   0  0  0  1  0  4  0  0  0  0  0  0
    4.0370   -0.0500   27.3240 C   0  0  0  1  0  4  0  0  0  0  0  0
    5.7162   -1.1768   28.9821 C   0  0  0  1  0  4  0  0  0  0  0  0
    6.4000   -2.4904   29.3320 C   0  0  0  1  0  4  0  0  0  0  0  0
    5.5636   -1.9311   26.5702 C   0  0  0  1  0  4  0  0  0  0  0  0
    6.3385   -3.1590   27.0193 C   0  0  0  1  0  4  0  0  0  0  0  0
    3.5580    0.6920   28.5700 C   0  0  0  1  0  4  0  0  0  0  0  0
    4.7240    1.3610   29.2750 C   0  0  0  1  0  4  0  0  0  0  0  0
    9.4700    5.5399   25.9982 C   0  0  0  1  0  2  0  0  0  0  0  0
   10.3998    5.5346   25.2405 C   0  0  0  1  0  2  0  0  0  0  0  0
   11.5343    5.5318   24.3151 C   0  0  0  1  0  4  0  0  0  0  0  0
    5.1462    5.5156   29.5100 O   0  0  0  1  0  2  0  0  0  0  0  0
   12.0735    4.2200   24.2013 O   0  0  0  1  0  2  0  0  0  0  0  0
    5.5641    8.5102   28.4588 I   0  0  0  1  0  1  0  0  0  0  0  0
    4.7370    2.8836   27.9673 H   0  0  0  1  0  1  0  0  0  0  0  0
    5.3082    6.1362   30.2106 H   0  0  0  1  0  1  0  0  0  0  0  0
    7.9875    7.6251   26.6953 H   0  0  0  1  0  1  0  0  0  0  0  0
    7.3639    2.4334   29.0730 H   0  0  0  1  0  1  0  0  0  0  0  0
    6.0952    3.3010   30.0031 H   0  0  0  1  0  1  0  0  0  0  0  0
    4.1022   -1.9819   28.0340 H   0  0  0  1  0  1  0  0  0  0  0  0
    6.7161    0.7114   27.6825 H   0  0  0  1  0  1  0  0  0  0  0  0
    6.6345    2.1472   26.6052 H   0  0  0  1  0  1  0  0  0  0  0  0
    8.5269    3.4520   27.3256 H   0  0  0  1  0  1  0  0  0  0  0  0
    5.4247    0.1677   25.6863 H   0  0  0  1  0  1  0  0  0  0  0  0
    4.3577    1.5878   25.9566 H   0  0  0  1  0  1  0  0  0  0  0  0
    3.1596   -0.3441   26.7290 H   0  0  0  1  0  1  0  0  0  0  0  0
    5.1131   -0.8503   29.8414 H   0  0  0  1  0  1  0  0  0  0  0  0
    6.4870   -0.4219   28.7665 H   0  0  0  1  0  1  0  0  0  0  0  0
    7.0127   -2.8224   28.4822 H   0  0  0  1  0  1  0  0  0  0  0  0
    5.6383   -3.2519   29.5551 H   0  0  0  1  0  1  0  0  0  0  0  0
    7.0423   -2.3462   30.2131 H   0  0  0  1  0  1  0  0  0  0  0  0
    6.2658   -1.1885   26.1607 H   0  0  0  1  0  1  0  0  0  0  0  0
    4.8418   -2.2216   25.7931 H   0  0  0  1  0  1  0  0  0  0  0  0
    6.8582   -3.6005   26.1560 H   0  0  0  1  0  1  0  0  0  0  0  0
    5.6421   -3.8959   27.4444 H   0  0  0  1  0  1  0  0  0  0  0  0
    7.0756   -2.8682   27.7818 H   0  0  0  1  0  1  0  0  0  0  0  0
    3.0831   -0.0243   29.2570 H   0  0  0  1  0  1  0  0  0  0  0  0
    2.8262    1.4584   28.2752 H   0  0  0  1  0  1  0  0  0  0  0  0
    4.3471    1.9485   30.1257 H   0  0  0  1  0  1  0  0  0  0  0  0
    5.4196    0.5908   29.6400 H   0  0  0  1  0  1  0  0  0  0  0  0
   12.3118    6.2123   24.6914 H   0  0  0  1  0  1  0  0  0  0  0  0
   11.1961    5.8727   23.3251 H   0  0  0  1  0  1  0  0  0  0  0  0
   12.8080    4.2322   23.5989 H   0  0  0  1  0  1  0  0  0  0  0  0
  1  6  1  0  0  0  0
  1  7  1  0  0  0  0
  1 18  1  0  0  0  0
  1 25  1  0  0  0  0
  2 12  1  0  0  0  0
  2 13  1  0  0  0  0
  2 15  1  0  0  0  0
  2 30  1  0  0  0  0
  3  5  2  0  0  0  0
  3  8  1  0  0  0  0
  3 19  1  0  0  0  0
  4  6  1  0  0  0  0
  4  8  2  0  0  0  0
  4 10  1  0  0  0  0
  5  9  1  0  0  0  0
  5 27  1  0  0  0  0
  6 28  1  0  0  0  0
  6 29  1  0  0  0  0
  7 11  1  0  0  0  0
  7 31  1  0  0  0  0
  7 32  1  0  0  0  0
  8 33  1  0  0  0  0
  9 10  2  0  0  0  0
  9 24  1  0  0  0  0
 10 22  1  0  0  0  0
 11 12  1  0  0  0  0
 11 34  1  0  0  0  0
 11 35  1  0  0  0  0
 12 17  1  0  0  0  0
 12 36  1  0  0  0  0
 13 14  1  0  0  0  0
 13 37  1  0  0  0  0
 13 38  1  0  0  0  0
 14 39  1  0  0  0  0
 14 40  1  0  0  0  0
 14 41  1  0  0  0  0
 15 16  1  0  0  0  0
 15 42  1  0  0  0  0
 15 43  1  0  0  0  0
 16 44  1  0  0  0  0
 16 45  1  0  0  0  0
 16 46  1  0  0  0  0
 17 18  1  0  0  0  0
 17 47  1  0  0  0  0
 17 48  1  0  0  0  0
 18 49  1  0  0  0  0
 18 50  1  0  0  0  0
 19 20  3  0  0  0  0
 20 21  1  0  0  0  0
 21 23  1  0  0  0  0
 21 51  1  0  0  0  0
 21 52  1  0  0  0  0
 22 26  1  0  0  0  0
 23 53  1  0  0  0  0
M  END
> <ConfScore>
-0.21448 

$$$$
4agn


 53 54  0  0  0  0  0  0  0  0999 V2000
    5.4320    2.2550   28.3390 N   0  3  0  1  0  4  0  0  0  0  0  0
    4.8087   -1.3149   27.7656 N   0  3  0  1  0  4  0  0  0  0  0  0
    8.6091    5.7057   27.4111 C   0  0  0  1  0  3  0  0  0  0  0  0
    6.8799    4.3500   28.3599 C   0  0  0  1  0  3  0  0  0  0  0  0
    7.6898    6.7073   27.1894 C   0  0  0  1  0  3  0  0  0  0  0  0
    6.4640    3.0610   28.9950 C   0  0  0  1  0  4  0  0  0  0  0  0
    6.0520    1.4770   27.2550 C   0  0  0  1  0  4  0  0  0  0  0  0
    8.2076    4.5379   28.0115 C   0  0  0  1  0  3  0  0  0  0  0  0
    6.3627    6.5380   27.5646 C   0  0  0  1  0  3  0  0  0  0  0  0
    5.9553    5.3602   28.1543 C   0  0  0  1  0  3  0  0  0  0  0  0
    4.9600    0.8100   26.4490 C   0  0  0  1  0  4  0  0  0  0  0  0
    4.0370   -0.0500   27.3240 C   0  0  0  1  0  4  0  0  0  0  0  0
    5.7162   -1.1768   28.9821 C   0  0  0  1  0  4  0  0  0  0  0  0
    6.4000   -2.4904   29.3320 C   0  0  0  1  0  4  0  0  0  0  0  0
    5.5636   -1.9311   26.5702 C   0  0  0  1  0  4  0  0  0  0  0  0
    6.3385   -3.1590   27.0193 C   0  0  0  1  0  4  0  0  0  0  0  0
    3.5580    0.6920   28.5700 C   0  0  0  1  0  4  0  0  0  0  0  0
    4.7240    1.3610   29.2750 C   0  0  0  1  0  4  0  0  0  0  0  0
    9.9719    5.8809   27.0189 C   0  0  0  1  0  2  0  0  0  0  0  0
   11.1181    6.0186   26.6932 C   0  0  0  1  0  2  0  0  0  0  0  0
   12.5162    6.1901   26.2944 C   0  0  0  1  0  4  0  0  0  0  0  0
    4.6553    5.1919   28.5314 O   0  0  0  1  0  2  0  0  0  0  0  0
   13.2684    5.0284   26.6245 O   0  0  0  1  0  2  0  0  0  0  0  0
    4.9555    8.1002   27.2281 I   0  0  0  1  0  1  0  0  0  0  0  0
    4.7370    2.8836   27.9673 H   0  0  0  1  0  1  0  0  0  0  0  0
    4.4046    5.8918   29.1226 H   0  0  0  1  0  1  0  0  0  0  0  0
    8.0033    7.6321   26.7198 H   0  0  0  1  0  1  0  0  0  0  0  0
    7.3639    2.4334   29.0730 H   0  0  0  1  0  1  0  0  0  0  0  0
    6.0952    3.3010   30.0031 H   0  0  0  1  0  1  0  0  0  0  0  0
    4.1022   -1.9819   28.0340 H   0  0  0  1  0  1  0  0  0  0  0  0
    6.7161    0.7114   27.6825 H   0  0  0  1  0  1  0  0  0  0  0  0
    6.6345    2.1472   26.6052 H   0  0  0  1  0  1  0  0  0  0  0  0
    8.9336    3.7585   28.2140 H   0  0  0  1  0  1  0  0  0  0  0  0
    5.4247    0.1677   25.6863 H   0  0  0  1  0  1  0  0  0  0  0  0
    4.3577    1.5878   25.9566 H   0  0  0  1  0  1  0  0  0  0  0  0
    3.1596   -0.3441   26.7290 H   0  0  0  1  0  1  0  0  0  0  0  0
    5.1131   -0.8503   29.8414 H   0  0  0  1  0  1  0  0  0  0  0  0
    6.4870   -0.4219   28.7665 H   0  0  0  1  0  1  0  0  0  0  0  0
    7.0428   -2.3460   30.2117 H   0  0  0  1  0  1  0  0  0  0  0  0
    7.0120   -2.8231   28.4807 H   0  0  0  1  0  1  0  0  0  0  0  0
    5.6386   -3.2521   29.5552 H   0  0  0  1  0  1  0  0  0  0  0  0
    6.2658   -1.1885   26.1607 H   0  0  0  1  0  1  0  0  0  0  0  0
    4.8418   -2.2216   25.7931 H   0  0  0  1  0  1  0  0  0  0  0  0
    6.8582   -3.6005   26.1560 H   0  0  0  1  0  1  0  0  0  0  0  0
    5.6421   -3.8959   27.4444 H   0  0  0  1  0  1  0  0  0  0  0  0
    7.0756   -2.8682   27.7818 H   0  0  0  1  0  1  0  0  0  0  0  0
    3.0831   -0.0243   29.2570 H   0  0  0  1  0  1  0  0  0  0  0  0
    2.8262    1.4584   28.2752 H   0  0  0  1  0  1  0  0  0  0  0  0
    4.3471    1.9485   30.1257 H   0  0  0  1  0  1  0  0  0  0  0  0
    5.4196    0.5908   29.6400 H   0  0  0  1  0  1  0  0  0  0  0  0
   12.9400    7.0582   26.8198 H   0  0  0  1  0  1  0  0  0  0  0  0
   12.5659    6.3585   25.2081 H   0  0  0  1  0  1  0  0  0  0  0  0
   14.1725    5.1528   26.3609 H   0  0  0  1  0  1  0  0  0  0  0  0
  1  6  1  0  0  0  0
  1  7  1  0  0  0  0
  1 18  1  0  0  0  0
  1 25  1  0  0  0  0
  2 12  1  0  0  0  0
  2 13  1  0  0  0  0
  2 15  1  0  0  0  0
  2 30  1  0  0  0  0
  3  5  2  0  0  0  0
  3  8  1  0  0  0  0
  3 19  1  0  0  0  0
  4  6  1  0  0  0  0
  4  8  2  0  0  0  0
  4 10  1  0  0  0  0
  5  9  1  0  0  0  0
  5 27  1  0  0  0  0
  6 28  1  0  0  0  0
  6 29  1  0  0  0  0
  7 11  1  0  0  0  0
  7 31  1  0  0  0  0
  7 32  1  0  0  0  0
  8 33  1  0  0  0  0
  9 10  2  0  0  0  0
  9 24  1  0  0  0  0
 10 22  1  0  0  0  0
 11 12  1  0  0  0  0
 11 34  1  0  0  0  0
 11 35  1  0  0  0  0
 12 17  1  0  0  0  0
 12 36  1  0  0  0  0
 13 14  1  0  0  0  0
 13 37  1  0  0  0  0
 13 38  1  0  0  0  0
 14 39  1  0  0  0  0
 14 40  1  0  0  0  0
 14 41  1  0  0  0  0
 15 16  1  0  0  0  0
 15 42  1  0  0  0  0
 15 43  1  0  0  0  0
 16 44  1  0  0  0  0
 16 45  1  0  0  0  0
 16 46  1  0  0  0  0
 17 18  1  0  0  0  0
 17 47  1  0  0  0  0
 17 48  1  0  0  0  0
 18 49  1  0  0  0  0
 18 50  1  0  0  0  0
 19 20  3  0  0  0  0
 20 21  1  0  0  0  0
 21 23  1  0  0  0  0
 21 51  1  0  0  0  0
 21 52  1  0  0  0  0
 22 26  1  0  0  0  0
 23 53  1  0  0  0  0
M  END
> <ConfScore>
-0.212625 

$$$$
4agn


 53 54  0  0  0  0  0  0  0  0999 V2000
   90.4980   98.3810  -44.6910 N   0  3  0  1  0  4  0  0  0  0  0  0
   92.0509  102.3792  -44.2366 N   0  3  0  1  0  4  0  0  0  0  0  0
   92.1758   94.1562  -44.9380 C   0  0  0  1  0  3  0  0  0  0  0  0
   90.4953   95.8979  -44.7834 C   0  0  0  1  0  3  0  0  0  0  0  0
   91.5977   93.4993  -43.8394 C   0  0  0  1  0  3  0  0  0  0  0  0
   89.9050   97.1660  -45.3350 C   0  0  0  1  0  4  0  0  0  0  0  0
   89.5430   99.5450  -44.7170 C   0  0  0  1  0  4  0  0  0  0  0  0
   91.6187   95.3589  -45.4121 C   0  0  0  1  0  3  0  0  0  0  0  0
   90.4640   94.0722  -43.2296 C   0  0  0  1  0  3  0  0  0  0  0  0
   89.8815   95.2651  -43.6745 C   0  0  0  1  0  3  0  0  0  0  0  0
   90.1750  100.7310  -44.0050 C   0  0  0  1  0  4  0  0  0  0  0  0
   91.4300  101.0810  -44.8020 C   0  0  0  1  0  4  0  0  0  0  0  0
   93.2367  102.9616  -44.9963 C   0  0  0  1  0  4  0  0  0  0  0  0
   93.2754  102.4840  -46.4405 C   0  0  0  1  0  4  0  0  0  0  0  0
   92.3718  102.2152  -42.7371 C   0  0  0  1  0  4  0  0  0  0  0  0
   91.1561  101.6797  -41.9988 C   0  0  0  1  0  4  0  0  0  0  0  0
   92.4510   99.9400  -44.6950 C   0  0  0  1  0  4  0  0  0  0  0  0
   91.8210   98.7070  -45.3220 C   0  0  0  1  0  4  0  0  0  0  0  0
   93.3345   93.6520  -45.6050 C   0  0  0  1  0  2  0  0  0  0  0  0
   94.3074   93.2208  -46.1586 C   0  0  0  1  0  2  0  0  0  0  0  0
   95.4948   92.6974  -46.8365 C   0  0  0  1  0  4  0  0  0  0  0  0
   88.7953   95.8354  -43.0783 O   0  0  0  1  0  2  0  0  0  0  0  0
   95.9155   91.4833  -46.2255 O   0  0  0  1  0  2  0  0  0  0  0  0
   89.5517   93.0703  -41.5872 I   0  0  0  1  0  1  0  0  0  0  0  0
   90.6653   98.1804  -43.7174 H   0  0  0  1  0  1  0  0  0  0  0  0
   88.5079   95.2890  -42.3563 H   0  0  0  1  0  1  0  0  0  0  0  0
   92.0155   92.5710  -43.4681 H   0  0  0  1  0  1  0  0  0  0  0  0
   90.0974   97.2069  -46.4172 H   0  0  0  1  0  1  0  0  0  0  0  0
   88.8199   97.1614  -45.1549 H   0  0  0  1  0  1  0  0  0  0  0  0
   91.3249  103.0755  -44.3006 H   0  0  0  1  0  1  0  0  0  0  0  0
   88.6095   99.2654  -44.2068 H   0  0  0  1  0  1  0  0  0  0  0  0
   89.3241   99.8172  -45.7604 H   0  0  0  1  0  1  0  0  0  0  0  0
   92.0603   95.8639  -46.2639 H   0  0  0  1  0  1  0  0  0  0  0  0
   90.4413  100.4593  -42.9728 H   0  0  0  1  0  1  0  0  0  0  0  0
   89.4801  101.5838  -43.9926 H   0  0  0  1  0  1  0  0  0  0  0  0
   91.1611  101.2321  -45.8581 H   0  0  0  1  0  1  0  0  0  0  0  0
   94.1662  102.6549  -44.4956 H   0  0  0  1  0  1  0  0  0  0  0  0
   93.1599  104.0592  -44.9875 H   0  0  0  1  0  1  0  0  0  0  0  0
   94.1428  102.9267  -46.9499 H   0  0  0  1  0  1  0  0  0  0  0  0
   92.3522  102.7917  -46.9531 H   0  0  0  1  0  1  0  0  0  0  0  0
   93.3578  101.3874  -46.4621 H   0  0  0  1  0  1  0  0  0  0  0  0
   92.6511  103.1930  -42.3151 H   0  0  0  1  0  1  0  0  0  0  0  0
   93.2081  101.5113  -42.6176 H   0  0  0  1  0  1  0  0  0  0  0  0
   91.4014  101.5497  -40.9344 H   0  0  0  1  0  1  0  0  0  0  0  0
   90.8640  100.7110  -42.4290 H   0  0  0  1  0  1  0  0  0  0  0  0
   90.3238  102.3916  -42.0991 H   0  0  0  1  0  1  0  0  0  0  0  0
   92.6879   99.7452  -43.6383 H   0  0  0  1  0  1  0  0  0  0  0  0
   93.3715  100.2074  -45.2344 H   0  0  0  1  0  1  0  0  0  0  0  0
   91.6686   98.8910  -46.3962 H   0  0  0  1  0  1  0  0  0  0  0  0
   92.5004   97.8520  -45.1886 H   0  0  0  1  0  1  0  0  0  0  0  0
   96.3060   93.4368  -46.7710 H   0  0  0  1  0  1  0  0  0  0  0  0
   95.2553   92.5081  -47.8937 H   0  0  0  1  0  1  0  0  0  0  0  0
   96.6857   91.1550  -46.6742 H   0  0  0  1  0  1  0  0  0  0  0  0
  1  6  1  0  0  0  0
  1  7  1  0  0  0  0
  1 18  1  0  0  0  0
  1 25  1  0  0  0  0
  2 12  1  0  0  0  0
  2 13  1  0  0  0  0
  2 15  1  0  0  0  0
  2 30  1  0  0  0  0
  3  5  2  0  0  0  0
  3  8  1  0  0  0  0
  3 19  1  0  0  0  0
  4  6  1  0  0  0  0
  4  8  2  0  0  0  0
  4 10  1  0  0  0  0
  5  9  1  0  0  0  0
  5 27  1  0  0  0  0
  6 28  1  0  0  0  0
  6 29  1  0  0  0  0
  7 11  1  0  0  0  0
  7 31  1  0  0  0  0
  7 32  1  0  0  0  0
  8 33  1  0  0  0  0
  9 10  2  0  0  0  0
  9 24  1  0  0  0  0
 10 22  1  0  0  0  0
 11 12  1  0  0  0  0
 11 34  1  0  0  0  0
 11 35  1  0  0  0  0
 12 17  1  0  0  0  0
 12 36  1  0  0  0  0
 13 14  1  0  0  0  0
 13 37  1  0  0  0  0
 13 38  1  0  0  0  0
 14 39  1  0  0  0  0
 14 40  1  0  0  0  0
 14 41  1  0  0  0  0
 15 16  1  0  0  0  0
 15 42  1  0  0  0  0
 15 43  1  0  0  0  0
 16 44  1  0  0  0  0
 16 45  1  0  0  0  0
 16 46  1  0  0  0  0
 17 18  1  0  0  0  0
 17 47  1  0  0  0  0
 17 48  1  0  0  0  0
 18 49  1  0  0  0  0
 18 50  1  0  0  0  0
 19 20  3  0  0  0  0
 20 21  1  0  0  0  0
 21 23  1  0  0  0  0
 21 51  1  0  0  0  0
 21 52  1  0  0  0  0
 22 26  1  0  0  0  0
 23 53  1  0  0  0  0
M  END
> <ConfScore>
-0.201795 

$$$$
4agn


 53 54  0  0  0  0  0  0  0  0999 V2000
   90.4980   98.3810  -44.6910 N   0  3  0  1  0  4  0  0  0  0  0  0
   92.0509  102.3792  -44.2366 N   0  3  0  1  0  4  0  0  0  0  0  0
   86.2995   96.6593  -46.3918 C   0  0  0  1  0  3  0  0  0  0  0  0
   88.4020   97.1986  -45.3100 C   0  0  0  1  0  3  0  0  0  0  0  0
   85.6001   97.2892  -45.3494 C   0  0  0  1  0  3  0  0  0  0  0  0
   89.9050   97.1660  -45.3350 C   0  0  0  1  0  4  0  0  0  0  0  0
   89.5430   99.5450  -44.7170 C   0  0  0  1  0  4  0  0  0  0  0  0
   87.7065   96.6176  -46.3713 C   0  0  0  1  0  3  0  0  0  0  0  0
   86.3351   97.8654  -44.2942 C   0  0  0  1  0  3  0  0  0  0  0  0
   87.7340   97.8452  -44.2411 C   0  0  0  1  0  3  0  0  0  0  0  0
   90.1750  100.7310  -44.0050 C   0  0  0  1  0  4  0  0  0  0  0  0
   91.4300  101.0810  -44.8020 C   0  0  0  1  0  4  0  0  0  0  0  0
   93.1547  102.2179  -43.1985 C   0  0  0  1  0  4  0  0  0  0  0  0
   94.2523  101.2796  -43.6783 C   0  0  0  1  0  4  0  0  0  0  0  0
   90.9462  103.3323  -43.7367 C   0  0  0  1  0  4  0  0  0  0  0  0
   89.8738  103.4922  -44.8017 C   0  0  0  1  0  4  0  0  0  0  0  0
   92.4510   99.9400  -44.6950 C   0  0  0  1  0  4  0  0  0  0  0  0
   91.8210   98.7070  -45.3220 C   0  0  0  1  0  4  0  0  0  0  0  0
   85.6320   96.0375  -47.4917 C   0  0  0  1  0  2  0  0  0  0  0  0
   85.0807   95.5130  -48.4189 C   0  0  0  1  0  2  0  0  0  0  0  0
   84.4046   94.8738  -49.5492 C   0  0  0  1  0  4  0  0  0  0  0  0
   88.4517   98.3846  -43.2141 O   0  0  0  1  0  2  0  0  0  0  0  0
   85.3607   94.3209  -50.4462 O   0  0  0  1  0  2  0  0  0  0  0  0
   85.2930   98.8579  -42.7249 I   0  0  0  1  0  1  0  0  0  0  0  0
   90.6653   98.1804  -43.7174 H   0  0  0  1  0  1  0  0  0  0  0  0
   87.8577   98.7767  -42.5852 H   0  0  0  1  0  1  0  0  0  0  0  0
   84.5175   97.3308  -45.3563 H   0  0  0  1  0  1  0  0  0  0  0  0
   90.2507   96.2723  -44.7950 H   0  0  0  1  0  1  0  0  0  0  0  0
   90.2427   97.1167  -46.3807 H   0  0  0  1  0  1  0  0  0  0  0  0
   92.4883  102.8336  -45.0229 H   0  0  0  1  0  1  0  0  0  0  0  0
   88.6095   99.2654  -44.2068 H   0  0  0  1  0  1  0  0  0  0  0  0
   89.3241   99.8172  -45.7604 H   0  0  0  1  0  1  0  0  0  0  0  0
   88.2478   96.1370  -47.1785 H   0  0  0  1  0  1  0  0  0  0  0  0
   90.4413  100.4593  -42.9728 H   0  0  0  1  0  1  0  0  0  0  0  0
   89.4801  101.5838  -43.9926 H   0  0  0  1  0  1  0  0  0  0  0  0
   91.1611  101.2321  -45.8581 H   0  0  0  1  0  1  0  0  0  0  0  0
   92.7186  101.8114  -42.2747 H   0  0  0  1  0  1  0  0  0  0  0  0
   93.5961  103.2046  -42.9928 H   0  0  0  1  0  1  0  0  0  0  0  0
   95.0254  101.1924  -42.9019 H   0  0  0  1  0  1  0  0  0  0  0  0
   94.7005  101.6806  -44.5992 H   0  0  0  1  0  1  0  0  0  0  0  0
   93.8236  100.2874  -43.8819 H   0  0  0  1  0  1  0  0  0  0  0  0
   91.3870  104.3165  -43.5149 H   0  0  0  1  0  1  0  0  0  0  0  0
   90.4928  102.9189  -42.8243 H   0  0  0  1  0  1  0  0  0  0  0  0
   89.0827  104.1592  -44.4281 H   0  0  0  1  0  1  0  0  0  0  0  0
   89.4432  102.5087  -45.0380 H   0  0  0  1  0  1  0  0  0  0  0  0
   90.3202  103.9249  -45.7089 H   0  0  0  1  0  1  0  0  0  0  0  0
   92.6879   99.7452  -43.6383 H   0  0  0  1  0  1  0  0  0  0  0  0
   93.3715  100.2074  -45.2344 H   0  0  0  1  0  1  0  0  0  0  0  0
   91.6686   98.8910  -46.3962 H   0  0  0  1  0  1  0  0  0  0  0  0
   92.5004   97.8520  -45.1886 H   0  0  0  1  0  1  0  0  0  0  0  0
   83.7988   95.6221  -50.0806 H   0  0  0  1  0  1  0  0  0  0  0  0
   83.7512   94.0715  -49.1748 H   0  0  0  1  0  1  0  0  0  0  0  0
   84.9094   93.9100  -51.1740 H   0  0  0  1  0  1  0  0  0  0  0  0
  1  6  1  0  0  0  0
  1  7  1  0  0  0  0
  1 18  1  0  0  0  0
  1 25  1  0  0  0  0
  2 12  1  0  0  0  0
  2 13  1  0  0  0  0
  2 15  1  0  0  0  0
  2 30  1  0  0  0  0
  3  5  2  0  0  0  0
  3  8  1  0  0  0  0
  3 19  1  0  0  0  0
  4  6  1  0  0  0  0
  4  8  2  0  0  0  0
  4 10  1  0  0  0  0
  5  9  1  0  0  0  0
  5 27  1  0  0  0  0
  6 28  1  0  0  0  0
  6 29  1  0  0  0  0
  7 11  1  0  0  0  0
  7 31  1  0  0  0  0
  7 32  1  0  0  0  0
  8 33  1  0  0  0  0
  9 10  2  0  0  0  0
  9 24  1  0  0  0  0
 10 22  1  0  0  0  0
 11 12  1  0  0  0  0
 11 34  1  0  0  0  0
 11 35  1  0  0  0  0
 12 17  1  0  0  0  0
 12 36  1  0  0  0  0
 13 14  1  0  0  0  0
 13 37  1  0  0  0  0
 13 38  1  0  0  0  0
 14 39  1  0  0  0  0
 14 40  1  0  0  0  0
 14 41  1  0  0  0  0
 15 16  1  0  0  0  0
 15 42  1  0  0  0  0
 15 43  1  0  0  0  0
 16 44  1  0  0  0  0
 16 45  1  0  0  0  0
 16 46  1  0  0  0  0
 17 18  1  0  0  0  0
 17 47  1  0  0  0  0
 17 48  1  0  0  0  0
 18 49  1  0  0  0  0
 18 50  1  0  0  0  0
 19 20  3  0  0  0  0
 20 21  1  0  0  0  0
 21 23  1  0  0  0  0
 21 51  1  0  0  0  0
 21 52  1  0  0  0  0
 22 26  1  0  0  0  0
 23 53  1  0  0  0  0
M  END
> <ConfScore>
-0.182675 

$$$$
4agn


 53 54  0  0  0  0  0  0  0  0999 V2000
   90.4980   98.3810  -44.6910 N   0  3  0  1  0  4  0  0  0  0  0  0
   92.0509  102.3792  -44.2366 N   0  3  0  1  0  4  0  0  0  0  0  0
   86.2995   96.6593  -46.3918 C   0  0  0  1  0  3  0  0  0  0  0  0
   88.4020   97.1986  -45.3100 C   0  0  0  1  0  3  0  0  0  0  0  0
   85.6001   97.2892  -45.3494 C   0  0  0  1  0  3  0  0  0  0  0  0
   89.9050   97.1660  -45.3350 C   0  0  0  1  0  4  0  0  0  0  0  0
   89.5430   99.5450  -44.7170 C   0  0  0  1  0  4  0  0  0  0  0  0
   87.7065   96.6176  -46.3713 C   0  0  0  1  0  3  0  0  0  0  0  0
   86.3351   97.8654  -44.2942 C   0  0  0  1  0  3  0  0  0  0  0  0
   87.7340   97.8452  -44.2411 C   0  0  0  1  0  3  0  0  0  0  0  0
   90.1750  100.7310  -44.0050 C   0  0  0  1  0  4  0  0  0  0  0  0
   91.4300  101.0810  -44.8020 C   0  0  0  1  0  4  0  0  0  0  0  0
   93.1547  102.2179  -43.1985 C   0  0  0  1  0  4  0  0  0  0  0  0
   93.6892  103.5616  -42.7249 C   0  0  0  1  0  4  0  0  0  0  0  0
   90.9462  103.3323  -43.7367 C   0  0  0  1  0  4  0  0  0  0  0  0
   89.8738  103.4922  -44.8017 C   0  0  0  1  0  4  0  0  0  0  0  0
   92.4510   99.9400  -44.6950 C   0  0  0  1  0  4  0  0  0  0  0  0
   91.8210   98.7070  -45.3220 C   0  0  0  1  0  4  0  0  0  0  0  0
   85.6320   96.0375  -47.4917 C   0  0  0  1  0  2  0  0  0  0  0  0
   85.0807   95.5130  -48.4189 C   0  0  0  1  0  2  0  0  0  0  0  0
   84.4046   94.8738  -49.5492 C   0  0  0  1  0  4  0  0  0  0  0  0
   88.4517   98.3846  -43.2141 O   0  0  0  1  0  2  0  0  0  0  0  0
   85.3607   94.3209  -50.4462 O   0  0  0  1  0  2  0  0  0  0  0  0
   85.2930   98.8579  -42.7249 I   0  0  0  1  0  1  0  0  0  0  0  0
   90.6653   98.1804  -43.7174 H   0  0  0  1  0  1  0  0  0  0  0  0
   87.8577   98.7767  -42.5852 H   0  0  0  1  0  1  0  0  0  0  0  0
   84.5175   97.3308  -45.3563 H   0  0  0  1  0  1  0  0  0  0  0  0
   90.2507   96.2723  -44.7950 H   0  0  0  1  0  1  0  0  0  0  0  0
   90.2427   97.1167  -46.3807 H   0  0  0  1  0  1  0  0  0  0  0  0
   92.4883  102.8336  -45.0229 H   0  0  0  1  0  1  0  0  0  0  0  0
   88.6095   99.2654  -44.2068 H   0  0  0  1  0  1  0  0  0  0  0  0
   89.3241   99.8172  -45.7604 H   0  0  0  1  0  1  0  0  0  0  0  0
   88.2478   96.1370  -47.1785 H   0  0  0  1  0  1  0  0  0  0  0  0
   90.4413  100.4593  -42.9728 H   0  0  0  1  0  1  0  0  0  0  0  0
   89.4801  101.5838  -43.9926 H   0  0  0  1  0  1  0  0  0  0  0  0
   91.1611  101.2321  -45.8581 H   0  0  0  1  0  1  0  0  0  0  0  0
   93.9805  101.6436  -43.6425 H   0  0  0  1  0  1  0  0  0  0  0  0
   92.7513  101.6714  -42.3329 H   0  0  0  1  0  1  0  0  0  0  0  0
   94.4803  103.3992  -41.9794 H   0  0  0  1  0  1  0  0  0  0  0  0
   92.8718  104.1421  -42.2724 H   0  0  0  1  0  1  0  0  0  0  0  0
   94.1006  104.1152  -43.5816 H   0  0  0  1  0  1  0  0  0  0  0  0
   91.3870  104.3165  -43.5149 H   0  0  0  1  0  1  0  0  0  0  0  0
   90.4928  102.9189  -42.8243 H   0  0  0  1  0  1  0  0  0  0  0  0
   89.0827  104.1592  -44.4281 H   0  0  0  1  0  1  0  0  0  0  0  0
   89.4432  102.5087  -45.0380 H   0  0  0  1  0  1  0  0  0  0  0  0
   90.3202  103.9249  -45.7089 H   0  0  0  1  0  1  0  0  0  0  0  0
   92.6879   99.7452  -43.6383 H   0  0  0  1  0  1  0  0  0  0  0  0
   93.3715  100.2074  -45.2344 H   0  0  0  1  0  1  0  0  0  0  0  0
   91.6686   98.8910  -46.3962 H   0  0  0  1  0  1  0  0  0  0  0  0
   92.5004   97.8520  -45.1886 H   0  0  0  1  0  1  0  0  0  0  0  0
   83.7988   95.6221  -50.0806 H   0  0  0  1  0  1  0  0  0  0  0  0
   83.7512   94.0715  -49.1748 H   0  0  0  1  0  1  0  0  0  0  0  0
   84.9094   93.9100  -51.1740 H   0  0  0  1  0  1  0  0  0  0  0  0
  1  6  1  0  0  0  0
  1  7  1  0  0  0  0
  1 18  1  0  0  0  0
  1 25  1  0  0  0  0
  2 12  1  0  0  0  0
  2 13  1  0  0  0  0
  2 15  1  0  0  0  0
  2 30  1  0  0  0  0
  3  5  2  0  0  0  0
  3  8  1  0  0  0  0
  3 19  1  0  0  0  0
  4  6  1  0  0  0  0
  4  8  2  0  0  0  0
  4 10  1  0  0  0  0
  5  9  1  0  0  0  0
  5 27  1  0  0  0  0
  6 28  1  0  0  0  0
  6 29  1  0  0  0  0
  7 11  1  0  0  0  0
  7 31  1  0  0  0  0
  7 32  1  0  0  0  0
  8 33  1  0  0  0  0
  9 10  2  0  0  0  0
  9 24  1  0  0  0  0
 10 22  1  0  0  0  0
 11 12  1  0  0  0  0
 11 34  1  0  0  0  0
 11 35  1  0  0  0  0
 12 17  1  0  0  0  0
 12 36  1  0  0  0  0
 13 14  1  0  0  0  0
 13 37  1  0  0  0  0
 13 38  1  0  0  0  0
 14 39  1  0  0  0  0
 14 40  1  0  0  0  0
 14 41  1  0  0  0  0
 15 16  1  0  0  0  0
 15 42  1  0  0  0  0
 15 43  1  0  0  0  0
 16 44  1  0  0  0  0
 16 45  1  0  0  0  0
 16 46  1  0  0  0  0
 17 18  1  0  0  0  0
 17 47  1  0  0  0  0
 17 48  1  0  0  0  0
 18 49  1  0  0  0  0
 18 50  1  0  0  0  0
 19 20  3  0  0  0  0
 20 21  1  0  0  0  0
 21 23  1  0  0  0  0
 21 51  1  0  0  0  0
 21 52  1  0  0  0  0
 22 26  1  0  0  0  0
 23 53  1  0  0  0  0
M  END
> <ConfScore>
-0.166225 

$$$$
4agn


 53 54  0  0  0  0  0  0  0  0999 V2000
   90.4980   98.3810  -44.6910 N   0  3  0  1  0  4  0  0  0  0  0  0
   92.0509  102.3792  -44.2366 N   0  3  0  1  0  4  0  0  0  0  0  0
   86.2995   96.6593  -46.3918 C   0  0  0  1  0  3  0  0  0  0  0  0
   88.4020   97.1986  -45.3100 C   0  0  0  1  0  3  0  0  0  0  0  0
   85.6001   97.2892  -45.3494 C   0  0  0  1  0  3  0  0  0  0  0  0
   89.9050   97.1660  -45.3350 C   0  0  0  1  0  4  0  0  0  0  0  0
   89.5430   99.5450  -44.7170 C   0  0  0  1  0  4  0  0  0  0  0  0
   87.7065   96.6176  -46.3713 C   0  0  0  1  0  3  0  0  0  0  0  0
   86.3351   97.8654  -44.2942 C   0  0  0  1  0  3  0  0  0  0  0  0
   87.7340   97.8452  -44.2411 C   0  0  0  1  0  3  0  0  0  0  0  0
   90.1750  100.7310  -44.0050 C   0  0  0  1  0  4  0  0  0  0  0  0
   91.4300  101.0810  -44.8020 C   0  0  0  1  0  4  0  0  0  0  0  0
   93.1547  102.2179  -43.1985 C   0  0  0  1  0  4  0  0  0  0  0  0
   93.6892  103.5616  -42.7249 C   0  0  0  1  0  4  0  0  0  0  0  0
   90.9462  103.3323  -43.7367 C   0  0  0  1  0  4  0  0  0  0  0  0
   90.3072  102.7746  -42.4757 C   0  0  0  1  0  4  0  0  0  0  0  0
   92.4510   99.9400  -44.6950 C   0  0  0  1  0  4  0  0  0  0  0  0
   91.8210   98.7070  -45.3220 C   0  0  0  1  0  4  0  0  0  0  0  0
   85.6320   96.0375  -47.4917 C   0  0  0  1  0  2  0  0  0  0  0  0
   85.0807   95.5130  -48.4189 C   0  0  0  1  0  2  0  0  0  0  0  0
   84.4046   94.8738  -49.5492 C   0  0  0  1  0  4  0  0  0  0  0  0
   88.4517   98.3846  -43.2141 O   0  0  0  1  0  2  0  0  0  0  0  0
   85.3607   94.3209  -50.4462 O   0  0  0  1  0  2  0  0  0  0  0  0
   85.2930   98.8579  -42.7249 I   0  0  0  1  0  1  0  0  0  0  0  0
   90.6653   98.1804  -43.7174 H   0  0  0  1  0  1  0  0  0  0  0  0
   87.8577   98.7767  -42.5852 H   0  0  0  1  0  1  0  0  0  0  0  0
   84.5175   97.3308  -45.3563 H   0  0  0  1  0  1  0  0  0  0  0  0
   90.2507   96.2723  -44.7950 H   0  0  0  1  0  1  0  0  0  0  0  0
   90.2427   97.1167  -46.3807 H   0  0  0  1  0  1  0  0  0  0  0  0
   92.4883  102.8336  -45.0229 H   0  0  0  1  0  1  0  0  0  0  0  0
   88.6095   99.2654  -44.2068 H   0  0  0  1  0  1  0  0  0  0  0  0
   89.3241   99.8172  -45.7604 H   0  0  0  1  0  1  0  0  0  0  0  0
   88.2478   96.1370  -47.1785 H   0  0  0  1  0  1  0  0  0  0  0  0
   90.4413  100.4593  -42.9728 H   0  0  0  1  0  1  0  0  0  0  0  0
   89.4801  101.5838  -43.9926 H   0  0  0  1  0  1  0  0  0  0  0  0
   91.1611  101.2321  -45.8581 H   0  0  0  1  0  1  0  0  0  0  0  0
   93.9805  101.6436  -43.6425 H   0  0  0  1  0  1  0  0  0  0  0  0
   92.7513  101.6714  -42.3329 H   0  0  0  1  0  1  0  0  0  0  0  0
   94.4803  103.3992  -41.9794 H   0  0  0  1  0  1  0  0  0  0  0  0
   92.8718  104.1421  -42.2724 H   0  0  0  1  0  1  0  0  0  0  0  0
   94.1006  104.1152  -43.5816 H   0  0  0  1  0  1  0  0  0  0  0  0
   90.1766  103.4392  -44.5168 H   0  0  0  1  0  1  0  0  0  0  0  0
   91.3851  104.3162  -43.5165 H   0  0  0  1  0  1  0  0  0  0  0  0
   89.5337  103.4703  -42.1181 H   0  0  0  1  0  1  0  0  0  0  0  0
   91.0762  102.6505  -41.6998 H   0  0  0  1  0  1  0  0  0  0  0  0
   89.8492  101.7996  -42.6976 H   0  0  0  1  0  1  0  0  0  0  0  0
   92.6879   99.7452  -43.6383 H   0  0  0  1  0  1  0  0  0  0  0  0
   93.3715  100.2074  -45.2344 H   0  0  0  1  0  1  0  0  0  0  0  0
   91.6686   98.8910  -46.3962 H   0  0  0  1  0  1  0  0  0  0  0  0
   92.5004   97.8520  -45.1886 H   0  0  0  1  0  1  0  0  0  0  0  0
   83.7988   95.6221  -50.0806 H   0  0  0  1  0  1  0  0  0  0  0  0
   83.7512   94.0715  -49.1748 H   0  0  0  1  0  1  0  0  0  0  0  0
   84.9094   93.9100  -51.1740 H   0  0  0  1  0  1  0  0  0  0  0  0
  1  6  1  0  0  0  0
  1  7  1  0  0  0  0
  1 18  1  0  0  0  0
  1 25  1  0  0  0  0
  2 12  1  0  0  0  0
  2 13  1  0  0  0  0
  2 15  1  0  0  0  0
  2 30  1  0  0  0  0
  3  5  2  0  0  0  0
  3  8  1  0  0  0  0
  3 19  1  0  0  0  0
  4  6  1  0  0  0  0
  4  8  2  0  0  0  0
  4 10  1  0  0  0  0
  5  9  1  0  0  0  0
  5 27  1  0  0  0  0
  6 28  1  0  0  0  0
  6 29  1  0  0  0  0
  7 11  1  0  0  0  0
  7 31  1  0  0  0  0
  7 32  1  0  0  0  0
  8 33  1  0  0  0  0
  9 10  2  0  0  0  0
  9 24  1  0  0  0  0
 10 22  1  0  0  0  0
 11 12  1  0  0  0  0
 11 34  1  0  0  0  0
 11 35  1  0  0  0  0
 12 17  1  0  0  0  0
 12 36  1  0  0  0  0
 13 14  1  0  0  0  0
 13 37  1  0  0  0  0
 13 38  1  0  0  0  0
 14 39  1  0  0  0  0
 14 40  1  0  0  0  0
 14 41  1  0  0  0  0
 15 16  1  0  0  0  0
 15 42  1  0  0  0  0
 15 43  1  0  0  0  0
 16 44  1  0  0  0  0
 16 45  1  0  0  0  0
 16 46  1  0  0  0  0
 17 18  1  0  0  0  0
 17 47  1  0  0  0  0
 17 48  1  0  0  0  0
 18 49  1  0  0  0  0
 18 50  1  0  0  0  0
 19 20  3  0  0  0  0
 20 21  1  0  0  0  0
 21 23  1  0  0  0  0
 21 51  1  0  0  0  0
 21 52  1  0  0  0  0
 22 26  1  0  0  0  0
 23 53  1  0  0  0  0
M  END
> <ConfScore>
-0.156006 

$$$$
