4ago


 69 70  0  0  0  0  0  0  0  0999 V2000
  124.1149  100.5411  -49.3604 N   0  0  0  1  0  3  0  0  0  0  0  0
  123.9473  107.6542  -44.6758 N   0  3  0  1  0  4  0  0  0  0  0  0
  125.4511  111.5657  -43.7236 N   0  3  0  1  0  4  0  0  0  0  0  0
  124.4410  102.8420  -45.2570 C   0  0  0  1  0  3  0  0  0  0  0  0
  124.5030  101.8040  -46.2320 C   0  0  0  1  0  2  0  0  0  0  0  0
  124.5352  100.9709  -47.0882 C   0  0  0  1  0  2  0  0  0  0  0  0
  124.5792   99.9403  -48.1297 C   0  0  0  1  0  4  0  0  0  0  0  0
  123.8990  105.1710  -44.8720 C   0  0  0  1  0  3  0  0  0  0  0  0
  124.8080  102.6740  -43.9190 C   0  0  0  1  0  3  0  0  0  0  0  0
  123.4000  106.4840  -45.4060 C   0  0  0  1  0  4  0  0  0  0  0  0
  123.0125  108.8238  -44.7871 C   0  0  0  1  0  4  0  0  0  0  0  0
  124.0000  104.0880  -45.7400 C   0  0  0  1  0  3  0  0  0  0  0  0
  124.6970  103.7740  -43.0690 C   0  0  0  1  0  3  0  0  0  0  0  0
  124.2530  105.0330  -43.5070 C   0  0  0  1  0  3  0  0  0  0  0  0
  123.5615  109.9492  -43.9281 C   0  0  0  1  0  4  0  0  0  0  0  0
  124.9177  110.3425  -44.4929 C   0  0  0  1  0  4  0  0  0  0  0  0
  126.9649  111.7853  -43.8353 C   0  0  0  1  0  4  0  0  0  0  0  0
  127.6782  110.4855  -43.5114 C   0  0  0  1  0  4  0  0  0  0  0  0
  124.6729  112.8746  -43.7914 C   0  0  0  1  0  4  0  0  0  0  0  0
  123.1905  112.7515  -43.4594 C   0  0  0  1  0  4  0  0  0  0  0  0
  125.8871  109.1525  -44.3612 C   0  0  0  1  0  4  0  0  0  0  0  0
  125.3231  107.9915  -45.1576 C   0  0  0  1  0  4  0  0  0  0  0  0
  122.7851  100.5971  -49.6658 C   0  0  0  1  0  3  0  0  0  0  0  0
  121.3356  101.4706  -51.4360 C   0  0  0  1  0  4  0  0  0  0  0  0
  120.6760  102.4157  -50.4250 C   0  0  0  1  0  4  0  0  0  0  0  0
  120.4760  100.2025  -51.5247 C   0  0  0  1  0  4  0  0  0  0  0  0
  121.4568  102.1734  -52.7937 C   0  0  0  1  0  4  0  0  0  0  0  0
  124.1560  106.1120  -42.6860 O   0  0  0  1  0  2  0  0  0  0  0  0
  122.6468  101.2076  -50.8669 O   0  0  0  1  0  2  0  0  0  0  0  0
  121.8966  100.2010  -48.9265 O   0  0  0  1  0  1  0  0  0  0  0  0
  125.2210  103.5640  -41.0130 I   0  0  0  1  0  1  0  0  0  0  0  0
  123.9261   99.1002  -47.8533 H   0  0  0  1  0  1  0  0  0  0  0  0
  125.6094   99.5775  -48.2552 H   0  0  0  1  0  1  0  0  0  0  0  0
  124.7804  100.9233  -50.0012 H   0  0  0  1  0  1  0  0  0  0  0  0
  124.0165  107.4074  -43.7013 H   0  0  0  1  0  1  0  0  0  0  0  0
  124.4250  105.8660  -41.8080 H   0  0  0  1  0  1  0  0  0  0  0  0
  125.1680  101.7180  -43.5540 H   0  0  0  1  0  1  0  0  0  0  0  0
  122.3025  106.5011  -45.3250 H   0  0  0  1  0  1  0  0  0  0  0  0
  123.6904  106.5650  -46.4644 H   0  0  0  1  0  1  0  0  0  0  0  0
  125.3245  111.2840  -42.7651 H   0  0  0  1  0  1  0  0  0  0  0  0
  122.0122  108.5374  -44.4304 H   0  0  0  1  0  1  0  0  0  0  0  0
  122.9493  109.1523  -45.8350 H   0  0  0  1  0  1  0  0  0  0  0  0
  123.7390  104.2040  -46.7850 H   0  0  0  1  0  1  0  0  0  0  0  0
  123.6734  109.6065  -42.8888 H   0  0  0  1  0  1  0  0  0  0  0  0
  122.8779  110.8107  -43.9585 H   0  0  0  1  0  1  0  0  0  0  0  0
  124.8101  110.6027  -45.5568 H   0  0  0  1  0  1  0  0  0  0  0  0
  127.2784  112.5647  -43.1253 H   0  0  0  1  0  1  0  0  0  0  0  0
  127.2175  112.0988  -44.8595 H   0  0  0  1  0  1  0  0  0  0  0  0
  127.4371  110.1812  -42.4817 H   0  0  0  1  0  1  0  0  0  0  0  0
  128.7646  110.6296  -43.6067 H   0  0  0  1  0  1  0  0  0  0  0  0
  127.3490  109.7027  -44.2109 H   0  0  0  1  0  1  0  0  0  0  0  0
  124.7626  113.2735  -44.8135 H   0  0  0  1  0  1  0  0  0  0  0  0
  125.1267  113.5799  -43.0804 H   0  0  0  1  0  1  0  0  0  0  0  0
  123.0759  112.3483  -42.4422 H   0  0  0  1  0  1  0  0  0  0  0  0
  122.7095  112.0730  -44.1791 H   0  0  0  1  0  1  0  0  0  0  0  0
  122.7171  113.7426  -43.5168 H   0  0  0  1  0  1  0  0  0  0  0  0
  125.9842  108.8664  -43.3039 H   0  0  0  1  0  1  0  0  0  0  0  0
  126.8754  109.4315  -44.7568 H   0  0  0  1  0  1  0  0  0  0  0  0
  125.2779  108.2683  -46.2216 H   0  0  0  1  0  1  0  0  0  0  0  0
  125.9762  107.1152  -45.0340 H   0  0  0  1  0  1  0  0  0  0  0  0
  119.6656  102.6759  -50.7716 H   0  0  0  1  0  1  0  0  0  0  0  0
  121.2775  103.3309  -50.3313 H   0  0  0  1  0  1  0  0  0  0  0  0
  120.6104  101.9180  -49.4470 H   0  0  0  1  0  1  0  0  0  0  0  0
  120.3344   99.7846  -50.5171 H   0  0  0  1  0  1  0  0  0  0  0  0
  120.9809   99.4603  -52.1611 H   0  0  0  1  0  1  0  0  0  0  0  0
  119.4979  100.4523  -51.9598 H   0  0  0  1  0  1  0  0  0  0  0  0
  121.9688  103.1384  -52.6624 H   0  0  0  1  0  1  0  0  0  0  0  0
  120.4531  102.3444  -53.2089 H   0  0  0  1  0  1  0  0  0  0  0  0
  122.0368  101.5411  -53.4829 H   0  0  0  1  0  1  0  0  0  0  0  0
  1  7  1  0  0  0  0
  1 23  1  0  0  0  0
  1 34  1  0  0  0  0
  2 10  1  0  0  0  0
  2 11  1  0  0  0  0
  2 22  1  0  0  0  0
  2 35  1  0  0  0  0
  3 16  1  0  0  0  0
  3 17  1  0  0  0  0
  3 19  1  0  0  0  0
  3 40  1  0  0  0  0
  4  5  1  0  0  0  0
  4  9  2  0  0  0  0
  4 12  1  0  0  0  0
  5  6  3  0  0  0  0
  6  7  1  0  0  0  0
  7 32  1  0  0  0  0
  7 33  1  0  0  0  0
  8 10  1  0  0  0  0
  8 12  2  0  0  0  0
  8 14  1  0  0  0  0
  9 13  1  0  0  0  0
  9 37  1  0  0  0  0
 10 38  1  0  0  0  0
 10 39  1  0  0  0  0
 11 15  1  0  0  0  0
 11 41  1  0  0  0  0
 11 42  1  0  0  0  0
 12 43  1  0  0  0  0
 13 14  2  0  0  0  0
 13 31  1  0  0  0  0
 14 28  1  0  0  0  0
 15 16  1  0  0  0  0
 15 44  1  0  0  0  0
 15 45  1  0  0  0  0
 16 21  1  0  0  0  0
 16 46  1  0  0  0  0
 17 18  1  0  0  0  0
 17 47  1  0  0  0  0
 17 48  1  0  0  0  0
 18 49  1  0  0  0  0
 18 50  1  0  0  0  0
 18 51  1  0  0  0  0
 19 20  1  0  0  0  0
 19 52  1  0  0  0  0
 19 53  1  0  0  0  0
 20 54  1  0  0  0  0
 20 55  1  0  0  0  0
 20 56  1  0  0  0  0
 21 22  1  0  0  0  0
 21 57  1  0  0  0  0
 21 58  1  0  0  0  0
 22 59  1  0  0  0  0
 22 60  1  0  0  0  0
 23 29  1  0  0  0  0
 23 30  2  0  0  0  0
 24 25  1  0  0  0  0
 24 26  1  0  0  0  0
 24 27  1  0  0  0  0
 24 29  1  0  0  0  0
 25 61  1  0  0  0  0
 25 62  1  0  0  0  0
 25 63  1  0  0  0  0
 26 64  1  0  0  0  0
 26 65  1  0  0  0  0
 26 66  1  0  0  0  0
 27 67  1  0  0  0  0
 27 68  1  0  0  0  0
 27 69  1  0  0  0  0
 28 36  1  0  0  0  0
M  END
> <ConfScore>
-0.69506 

$$$$
4ago


 69 70  0  0  0  0  0  0  0  0999 V2000
   91.1554   91.2821  -49.2504 N   0  0  0  1  0  3  0  0  0  0  0  0
   90.3795   98.3716  -44.5841 N   0  3  0  1  0  4  0  0  0  0  0  0
   92.1943  102.1994  -43.8029 N   0  3  0  1  0  4  0  0  0  0  0  0
   91.2337   93.6144  -45.1525 C   0  0  0  1  0  3  0  0  0  0  0  0
   91.3933   92.5817  -46.1220 C   0  0  0  1  0  2  0  0  0  0  0  0
   91.5051   91.7512  -46.9740 C   0  0  0  1  0  2  0  0  0  0  0  0
   91.6473   90.7242  -48.0102 C   0  0  0  1  0  4  0  0  0  0  0  0
   90.5014   95.8938  -44.7858 C   0  0  0  1  0  3  0  0  0  0  0  0
   91.5924   93.4805  -43.8084 C   0  0  0  1  0  3  0  0  0  0  0  0
   89.9050   97.1660  -45.3350 C   0  0  0  1  0  4  0  0  0  0  0  0
   89.6769   99.6225  -45.0415 C   0  0  0  1  0  4  0  0  0  0  0  0
   90.7019   94.8197  -45.6475 C   0  0  0  1  0  3  0  0  0  0  0  0
   91.3808   94.5707  -42.9650 C   0  0  0  1  0  3  0  0  0  0  0  0
   90.8444   95.7888  -43.4150 C   0  0  0  1  0  3  0  0  0  0  0  0
   90.1578  100.8025  -44.2112 C   0  0  0  1  0  4  0  0  0  0  0  0
   91.6552  100.9277  -44.4846 C   0  0  0  1  0  4  0  0  0  0  0  0
   91.5600  103.5080  -44.2901 C   0  0  0  1  0  4  0  0  0  0  0  0
   91.8004  103.6484  -45.7819 C   0  0  0  1  0  4  0  0  0  0  0  0
   92.4096  102.1907  -42.2939 C   0  0  0  1  0  4  0  0  0  0  0  0
   91.1300  102.1215  -41.4688 C   0  0  0  1  0  4  0  0  0  0  0  0
   92.3914   99.7011  -43.9285 C   0  0  0  1  0  4  0  0  0  0  0  0
   91.8740   98.4835  -44.6770 C   0  0  0  1  0  4  0  0  0  0  0  0
   91.7174   92.3994  -49.7987 C   0  0  0  1  0  3  0  0  0  0  0  0
   91.4699   93.7975  -51.7941 C   0  0  0  1  0  4  0  0  0  0  0  0
   90.4998   93.7352  -52.9796 C   0  0  0  1  0  4  0  0  0  0  0  0
   92.8923   93.6154  -52.3401 C   0  0  0  1  0  4  0  0  0  0  0  0
   91.3059   95.1370  -51.0655 C   0  0  0  1  0  4  0  0  0  0  0  0
   90.6489   96.8591  -42.6002 O   0  0  0  1  0  2  0  0  0  0  0  0
   91.0601   92.6902  -50.9467 O   0  0  0  1  0  2  0  0  0  0  0  0
   92.6857   92.9782  -49.3294 O   0  0  0  1  0  1  0  0  0  0  0  0
   91.8884   94.4097  -40.9004 I   0  0  0  1  0  1  0  0  0  0  0  0
   91.0592   89.8353  -47.7401 H   0  0  0  1  0  1  0  0  0  0  0  0
   92.7050   90.4445  -48.1187 H   0  0  0  1  0  1  0  0  0  0  0  0
   90.3884   90.8415  -49.7164 H   0  0  0  1  0  1  0  0  0  0  0  0
   90.1418   98.2593  -43.6112 H   0  0  0  1  0  1  0  0  0  0  0  0
   90.9232   96.6382  -41.7172 H   0  0  0  1  0  1  0  0  0  0  0  0
   92.0220   92.5575  -43.4340 H   0  0  0  1  0  1  0  0  0  0  0  0
   90.1946   97.2679  -46.3920 H   0  0  0  1  0  1  0  0  0  0  0  0
   88.8087   97.1074  -45.2585 H   0  0  0  1  0  1  0  0  0  0  0  0
   93.1351  102.2472  -44.1590 H   0  0  0  1  0  1  0  0  0  0  0  0
   88.5912   99.5015  -44.9132 H   0  0  0  1  0  1  0  0  0  0  0  0
   89.9034   99.8036  -46.1026 H   0  0  0  1  0  1  0  0  0  0  0  0
   90.4485   94.9112  -46.6968 H   0  0  0  1  0  1  0  0  0  0  0  0
   89.9790  100.6155  -43.1420 H   0  0  0  1  0  1  0  0  0  0  0  0
   89.6356  101.7218  -44.5156 H   0  0  0  1  0  1  0  0  0  0  0  0
   91.8237  100.9933  -45.5702 H   0  0  0  1  0  1  0  0  0  0  0  0
   92.0155  104.3584  -43.7616 H   0  0  0  1  0  1  0  0  0  0  0  0
   90.4778  103.4896  -44.0915 H   0  0  0  1  0  1  0  0  0  0  0  0
   92.8830  103.6649  -45.9794 H   0  0  0  1  0  1  0  0  0  0  0  0
   91.3478  104.5850  -46.1399 H   0  0  0  1  0  1  0  0  0  0  0  0
   91.3454  102.7962  -46.3083 H   0  0  0  1  0  1  0  0  0  0  0  0
   92.9443  103.1131  -42.0193 H   0  0  0  1  0  1  0  0  0  0  0  0
   93.0287  101.3179  -42.0415 H   0  0  0  1  0  1  0  0  0  0  0  0
   91.3848  102.1195  -40.3985 H   0  0  0  1  0  1  0  0  0  0  0  0
   90.5839  101.1997  -41.7173 H   0  0  0  1  0  1  0  0  0  0  0  0
   90.4993  102.9937  -41.6943 H   0  0  0  1  0  1  0  0  0  0  0  0
   92.1874   99.5959  -42.8531 H   0  0  0  1  0  1  0  0  0  0  0  0
   93.4749   99.8084  -44.0881 H   0  0  0  1  0  1  0  0  0  0  0  0
   92.1606   98.5671  -45.7361 H   0  0  0  1  0  1  0  0  0  0  0  0
   92.3271   97.5796  -44.2443 H   0  0  0  1  0  1  0  0  0  0  0  0
   90.7399   94.5372  -53.6923 H   0  0  0  1  0  1  0  0  0  0  0  0
   89.4697   93.8634  -52.6183 H   0  0  0  1  0  1  0  0  0  0  0  0
   90.5946   92.7608  -53.4798 H   0  0  0  1  0  1  0  0  0  0  0  0
   92.9449   92.6835  -52.9222 H   0  0  0  1  0  1  0  0  0  0  0  0
   93.6037   93.5641  -51.5022 H   0  0  0  1  0  1  0  0  0  0  0  0
   93.1489   94.4672  -52.9860 H   0  0  0  1  0  1  0  0  0  0  0  0
   92.0088   95.1829  -50.2202 H   0  0  0  1  0  1  0  0  0  0  0  0
   90.2760   95.2272  -50.6913 H   0  0  0  1  0  1  0  0  0  0  0  0
   91.5170   95.9616  -51.7632 H   0  0  0  1  0  1  0  0  0  0  0  0
  1  7  1  0  0  0  0
  1 23  1  0  0  0  0
  1 34  1  0  0  0  0
  2 10  1  0  0  0  0
  2 11  1  0  0  0  0
  2 22  1  0  0  0  0
  2 35  1  0  0  0  0
  3 16  1  0  0  0  0
  3 17  1  0  0  0  0
  3 19  1  0  0  0  0
  3 40  1  0  0  0  0
  4  5  1  0  0  0  0
  4  9  2  0  0  0  0
  4 12  1  0  0  0  0
  5  6  3  0  0  0  0
  6  7  1  0  0  0  0
  7 32  1  0  0  0  0
  7 33  1  0  0  0  0
  8 10  1  0  0  0  0
  8 12  2  0  0  0  0
  8 14  1  0  0  0  0
  9 13  1  0  0  0  0
  9 37  1  0  0  0  0
 10 38  1  0  0  0  0
 10 39  1  0  0  0  0
 11 15  1  0  0  0  0
 11 41  1  0  0  0  0
 11 42  1  0  0  0  0
 12 43  1  0  0  0  0
 13 14  2  0  0  0  0
 13 31  1  0  0  0  0
 14 28  1  0  0  0  0
 15 16  1  0  0  0  0
 15 44  1  0  0  0  0
 15 45  1  0  0  0  0
 16 21  1  0  0  0  0
 16 46  1  0  0  0  0
 17 18  1  0  0  0  0
 17 47  1  0  0  0  0
 17 48  1  0  0  0  0
 18 49  1  0  0  0  0
 18 50  1  0  0  0  0
 18 51  1  0  0  0  0
 19 20  1  0  0  0  0
 19 52  1  0  0  0  0
 19 53  1  0  0  0  0
 20 54  1  0  0  0  0
 20 55  1  0  0  0  0
 20 56  1  0  0  0  0
 21 22  1  0  0  0  0
 21 57  1  0  0  0  0
 21 58  1  0  0  0  0
 22 59  1  0  0  0  0
 22 60  1  0  0  0  0
 23 29  1  0  0  0  0
 23 30  2  0  0  0  0
 24 25  1  0  0  0  0
 24 26  1  0  0  0  0
 24 27  1  0  0  0  0
 24 29  1  0  0  0  0
 25 61  1  0  0  0  0
 25 62  1  0  0  0  0
 25 63  1  0  0  0  0
 26 64  1  0  0  0  0
 26 65  1  0  0  0  0
 26 66  1  0  0  0  0
 27 67  1  0  0  0  0
 27 68  1  0  0  0  0
 27 69  1  0  0  0  0
 28 36  1  0  0  0  0
M  END
> <ConfScore>
-0.690813 

$$$$
4ago


 69 70  0  0  0  0  0  0  0  0999 V2000
   91.1554   91.2821  -49.2504 N   0  0  0  1  0  3  0  0  0  0  0  0
   90.3795   98.3716  -44.5841 N   0  3  0  1  0  4  0  0  0  0  0  0
   92.1943  102.1994  -43.8029 N   0  3  0  1  0  4  0  0  0  0  0  0
   91.2337   93.6144  -45.1525 C   0  0  0  1  0  3  0  0  0  0  0  0
   91.3933   92.5817  -46.1220 C   0  0  0  1  0  2  0  0  0  0  0  0
   91.5051   91.7512  -46.9740 C   0  0  0  1  0  2  0  0  0  0  0  0
   91.6473   90.7242  -48.0102 C   0  0  0  1  0  4  0  0  0  0  0  0
   90.5014   95.8938  -44.7858 C   0  0  0  1  0  3  0  0  0  0  0  0
   91.5924   93.4805  -43.8084 C   0  0  0  1  0  3  0  0  0  0  0  0
   89.9050   97.1660  -45.3350 C   0  0  0  1  0  4  0  0  0  0  0  0
   89.6769   99.6225  -45.0415 C   0  0  0  1  0  4  0  0  0  0  0  0
   90.7019   94.8197  -45.6475 C   0  0  0  1  0  3  0  0  0  0  0  0
   91.3808   94.5707  -42.9650 C   0  0  0  1  0  3  0  0  0  0  0  0
   90.8444   95.7888  -43.4150 C   0  0  0  1  0  3  0  0  0  0  0  0
   90.1578  100.8025  -44.2112 C   0  0  0  1  0  4  0  0  0  0  0  0
   91.6552  100.9277  -44.4846 C   0  0  0  1  0  4  0  0  0  0  0  0
   91.5600  103.5080  -44.2901 C   0  0  0  1  0  4  0  0  0  0  0  0
   91.8004  103.6484  -45.7819 C   0  0  0  1  0  4  0  0  0  0  0  0
   92.4096  102.1907  -42.2939 C   0  0  0  1  0  4  0  0  0  0  0  0
   91.1300  102.1215  -41.4688 C   0  0  0  1  0  4  0  0  0  0  0  0
   92.3914   99.7011  -43.9285 C   0  0  0  1  0  4  0  0  0  0  0  0
   91.8740   98.4835  -44.6770 C   0  0  0  1  0  4  0  0  0  0  0  0
   91.7174   92.3994  -49.7987 C   0  0  0  1  0  3  0  0  0  0  0  0
   91.4699   93.7975  -51.7941 C   0  0  0  1  0  4  0  0  0  0  0  0
   92.8926   93.4255  -52.2272 C   0  0  0  1  0  4  0  0  0  0  0  0
   91.5440   95.1222  -51.0232 C   0  0  0  1  0  4  0  0  0  0  0  0
   90.5682   93.9067  -53.0298 C   0  0  0  1  0  4  0  0  0  0  0  0
   90.6489   96.8591  -42.6002 O   0  0  0  1  0  2  0  0  0  0  0  0
   91.0601   92.6902  -50.9467 O   0  0  0  1  0  2  0  0  0  0  0  0
   92.6857   92.9782  -49.3294 O   0  0  0  1  0  1  0  0  0  0  0  0
   91.8884   94.4097  -40.9004 I   0  0  0  1  0  1  0  0  0  0  0  0
   91.0592   89.8353  -47.7401 H   0  0  0  1  0  1  0  0  0  0  0  0
   92.7050   90.4445  -48.1187 H   0  0  0  1  0  1  0  0  0  0  0  0
   90.3884   90.8415  -49.7164 H   0  0  0  1  0  1  0  0  0  0  0  0
   90.1418   98.2593  -43.6112 H   0  0  0  1  0  1  0  0  0  0  0  0
   90.9232   96.6382  -41.7172 H   0  0  0  1  0  1  0  0  0  0  0  0
   92.0220   92.5575  -43.4340 H   0  0  0  1  0  1  0  0  0  0  0  0
   90.1946   97.2679  -46.3920 H   0  0  0  1  0  1  0  0  0  0  0  0
   88.8087   97.1074  -45.2585 H   0  0  0  1  0  1  0  0  0  0  0  0
   93.1351  102.2472  -44.1590 H   0  0  0  1  0  1  0  0  0  0  0  0
   88.5912   99.5015  -44.9132 H   0  0  0  1  0  1  0  0  0  0  0  0
   89.9034   99.8036  -46.1026 H   0  0  0  1  0  1  0  0  0  0  0  0
   90.4485   94.9112  -46.6968 H   0  0  0  1  0  1  0  0  0  0  0  0
   89.9790  100.6155  -43.1420 H   0  0  0  1  0  1  0  0  0  0  0  0
   89.6356  101.7218  -44.5156 H   0  0  0  1  0  1  0  0  0  0  0  0
   91.8237  100.9933  -45.5702 H   0  0  0  1  0  1  0  0  0  0  0  0
   92.0155  104.3584  -43.7616 H   0  0  0  1  0  1  0  0  0  0  0  0
   90.4778  103.4896  -44.0915 H   0  0  0  1  0  1  0  0  0  0  0  0
   92.8830  103.6649  -45.9794 H   0  0  0  1  0  1  0  0  0  0  0  0
   91.3478  104.5850  -46.1399 H   0  0  0  1  0  1  0  0  0  0  0  0
   91.3454  102.7962  -46.3083 H   0  0  0  1  0  1  0  0  0  0  0  0
   92.9443  103.1131  -42.0193 H   0  0  0  1  0  1  0  0  0  0  0  0
   93.0287  101.3179  -42.0415 H   0  0  0  1  0  1  0  0  0  0  0  0
   91.3848  102.1195  -40.3985 H   0  0  0  1  0  1  0  0  0  0  0  0
   90.5839  101.1997  -41.7173 H   0  0  0  1  0  1  0  0  0  0  0  0
   90.4993  102.9937  -41.6943 H   0  0  0  1  0  1  0  0  0  0  0  0
   92.1874   99.5959  -42.8531 H   0  0  0  1  0  1  0  0  0  0  0  0
   93.4749   99.8084  -44.0881 H   0  0  0  1  0  1  0  0  0  0  0  0
   92.1606   98.5671  -45.7361 H   0  0  0  1  0  1  0  0  0  0  0  0
   92.3271   97.5796  -44.2443 H   0  0  0  1  0  1  0  0  0  0  0  0
   93.2991   94.2186  -52.8710 H   0  0  0  1  0  1  0  0  0  0  0  0
   92.8711   92.4780  -52.7839 H   0  0  0  1  0  1  0  0  0  0  0  0
   93.5291   93.3141  -51.3378 H   0  0  0  1  0  1  0  0  0  0  0  0
   92.2607   95.0243  -50.1944 H   0  0  0  1  0  1  0  0  0  0  0  0
   90.5503   95.3690  -50.6203 H   0  0  0  1  0  1  0  0  0  0  0  0
   91.8730   95.9229  -51.7008 H   0  0  0  1  0  1  0  0  0  0  0  0
   89.5497   94.1818  -52.7172 H   0  0  0  1  0  1  0  0  0  0  0  0
   90.5428   92.9393  -53.5518 H   0  0  0  1  0  1  0  0  0  0  0  0
   90.9655   94.6789  -53.7060 H   0  0  0  1  0  1  0  0  0  0  0  0
  1  7  1  0  0  0  0
  1 23  1  0  0  0  0
  1 34  1  0  0  0  0
  2 10  1  0  0  0  0
  2 11  1  0  0  0  0
  2 22  1  0  0  0  0
  2 35  1  0  0  0  0
  3 16  1  0  0  0  0
  3 17  1  0  0  0  0
  3 19  1  0  0  0  0
  3 40  1  0  0  0  0
  4  5  1  0  0  0  0
  4  9  2  0  0  0  0
  4 12  1  0  0  0  0
  5  6  3  0  0  0  0
  6  7  1  0  0  0  0
  7 32  1  0  0  0  0
  7 33  1  0  0  0  0
  8 10  1  0  0  0  0
  8 12  2  0  0  0  0
  8 14  1  0  0  0  0
  9 13  1  0  0  0  0
  9 37  1  0  0  0  0
 10 38  1  0  0  0  0
 10 39  1  0  0  0  0
 11 15  1  0  0  0  0
 11 41  1  0  0  0  0
 11 42  1  0  0  0  0
 12 43  1  0  0  0  0
 13 14  2  0  0  0  0
 13 31  1  0  0  0  0
 14 28  1  0  0  0  0
 15 16  1  0  0  0  0
 15 44  1  0  0  0  0
 15 45  1  0  0  0  0
 16 21  1  0  0  0  0
 16 46  1  0  0  0  0
 17 18  1  0  0  0  0
 17 47  1  0  0  0  0
 17 48  1  0  0  0  0
 18 49  1  0  0  0  0
 18 50  1  0  0  0  0
 18 51  1  0  0  0  0
 19 20  1  0  0  0  0
 19 52  1  0  0  0  0
 19 53  1  0  0  0  0
 20 54  1  0  0  0  0
 20 55  1  0  0  0  0
 20 56  1  0  0  0  0
 21 22  1  0  0  0  0
 21 57  1  0  0  0  0
 21 58  1  0  0  0  0
 22 59  1  0  0  0  0
 22 60  1  0  0  0  0
 23 29  1  0  0  0  0
 23 30  2  0  0  0  0
 24 25  1  0  0  0  0
 24 26  1  0  0  0  0
 24 27  1  0  0  0  0
 24 29  1  0  0  0  0
 25 61  1  0  0  0  0
 25 62  1  0  0  0  0
 25 63  1  0  0  0  0
 26 64  1  0  0  0  0
 26 65  1  0  0  0  0
 26 66  1  0  0  0  0
 27 67  1  0  0  0  0
 27 68  1  0  0  0  0
 27 69  1  0  0  0  0
 28 36  1  0  0  0  0
M  END
> <ConfScore>
-0.690813 

$$$$
4ago


 69 70  0  0  0  0  0  0  0  0999 V2000
   91.1554   91.2821  -49.2504 N   0  0  0  1  0  3  0  0  0  0  0  0
   90.3683   98.3703  -44.5750 N   0  3  0  1  0  4  0  0  0  0  0  0
   92.2965  102.1278  -43.7275 N   0  3  0  1  0  4  0  0  0  0  0  0
   91.2337   93.6144  -45.1525 C   0  0  0  1  0  3  0  0  0  0  0  0
   91.3933   92.5817  -46.1220 C   0  0  0  1  0  2  0  0  0  0  0  0
   91.5051   91.7512  -46.9740 C   0  0  0  1  0  2  0  0  0  0  0  0
   91.6473   90.7242  -48.0102 C   0  0  0  1  0  4  0  0  0  0  0  0
   90.5014   95.8938  -44.7858 C   0  0  0  1  0  3  0  0  0  0  0  0
   91.5924   93.4805  -43.8084 C   0  0  0  1  0  3  0  0  0  0  0  0
   89.9050   97.1660  -45.3350 C   0  0  0  1  0  4  0  0  0  0  0  0
   89.7773   99.6388  -45.1311 C   0  0  0  1  0  4  0  0  0  0  0  0
   90.7019   94.8197  -45.6475 C   0  0  0  1  0  3  0  0  0  0  0  0
   91.3808   94.5707  -42.9650 C   0  0  0  1  0  3  0  0  0  0  0  0
   90.8444   95.7888  -43.4150 C   0  0  0  1  0  3  0  0  0  0  0  0
   90.2381  100.8197  -44.2908 C   0  0  0  1  0  4  0  0  0  0  0  0
   91.7591  100.8630  -44.4231 C   0  0  0  1  0  4  0  0  0  0  0  0
   93.7191  102.5305  -44.1355 C   0  0  0  1  0  4  0  0  0  0  0  0
   94.5700  101.2802  -44.2609 C   0  0  0  1  0  4  0  0  0  0  0  0
   91.3765  103.3342  -43.5803 C   0  0  0  1  0  4  0  0  0  0  0  0
   89.9401  102.9963  -43.1990 C   0  0  0  1  0  4  0  0  0  0  0  0
   92.3754   99.6202  -43.7663 C   0  0  0  1  0  4  0  0  0  0  0  0
   91.8687   98.4061  -44.5276 C   0  0  0  1  0  4  0  0  0  0  0  0
   91.7675   92.3507  -49.8405 C   0  0  0  1  0  3  0  0  0  0  0  0
   91.5133   93.7544  -51.8311 C   0  0  0  1  0  4  0  0  0  0  0  0
   91.3291   94.9960  -50.9509 C   0  0  0  1  0  4  0  0  0  0  0  0
   90.6078   93.9105  -53.0601 C   0  0  0  1  0  4  0  0  0  0  0  0
   92.9893   93.6172  -52.2242 C   0  0  0  1  0  4  0  0  0  0  0  0
   90.6489   96.8591  -42.6002 O   0  0  0  1  0  2  0  0  0  0  0  0
   91.0972   92.6542  -50.9776 O   0  0  0  1  0  2  0  0  0  0  0  0
   92.7811   92.8809  -49.4110 O   0  0  0  1  0  1  0  0  0  0  0  0
   91.8884   94.4097  -40.9004 I   0  0  0  1  0  1  0  0  0  0  0  0
   91.0592   89.8353  -47.7401 H   0  0  0  1  0  1  0  0  0  0  0  0
   92.7050   90.4445  -48.1187 H   0  0  0  1  0  1  0  0  0  0  0  0
   90.3510   90.8778  -49.6852 H   0  0  0  1  0  1  0  0  0  0  0  0
   90.0347   98.3007  -43.6266 H   0  0  0  1  0  1  0  0  0  0  0  0
   90.9232   96.6382  -41.7172 H   0  0  0  1  0  1  0  0  0  0  0  0
   92.0220   92.5575  -43.4340 H   0  0  0  1  0  1  0  0  0  0  0  0
   90.2035   97.2734  -46.3890 H   0  0  0  1  0  1  0  0  0  0  0  0
   88.8083   97.1030  -45.2684 H   0  0  0  1  0  1  0  0  0  0  0  0
   92.4042  101.8159  -42.7761 H   0  0  0  1  0  1  0  0  0  0  0  0
   88.6795   99.5751  -45.1039 H   0  0  0  1  0  1  0  0  0  0  0  0
   90.1117   99.7749  -46.1702 H   0  0  0  1  0  1  0  0  0  0  0  0
   90.4485   94.9112  -46.6968 H   0  0  0  1  0  1  0  0  0  0  0  0
   89.9501  100.6757  -43.2389 H   0  0  0  1  0  1  0  0  0  0  0  0
   89.7951  101.7533  -44.6684 H   0  0  0  1  0  1  0  0  0  0  0  0
   92.0322  100.8858  -45.4890 H   0  0  0  1  0  1  0  0  0  0  0  0
   94.1489  103.1937  -43.3705 H   0  0  0  1  0  1  0  0  0  0  0  0
   93.6908  103.0554  -45.1023 H   0  0  0  1  0  1  0  0  0  0  0  0
   94.5960  100.7553  -43.2940 H   0  0  0  1  0  1  0  0  0  0  0  0
   95.5926  101.5603  -44.5541 H   0  0  0  1  0  1  0  0  0  0  0  0
   94.1374  100.6177  -45.0255 H   0  0  0  1  0  1  0  0  0  0  0  0
   91.3582  103.8700  -44.5419 H   0  0  0  1  0  1  0  0  0  0  0  0
   91.7933  103.9896  -42.8022 H   0  0  0  1  0  1  0  0  0  0  0  0
   89.9339  102.4540  -42.2417 H   0  0  0  1  0  1  0  0  0  0  0  0
   89.4929  102.3651  -43.9807 H   0  0  0  1  0  1  0  0  0  0  0  0
   89.3580  103.9240  -43.0989 H   0  0  0  1  0  1  0  0  0  0  0  0
   92.0660   99.5593  -42.7129 H   0  0  0  1  0  1  0  0  0  0  0  0
   93.4733   99.6694  -43.8245 H   0  0  0  1  0  1  0  0  0  0  0  0
   92.2576   98.4419  -45.5564 H   0  0  0  1  0  1  0  0  0  0  0  0
   92.2318   97.4954  -44.0294 H   0  0  0  1  0  1  0  0  0  0  0  0
   91.6105   95.8937  -51.5198 H   0  0  0  1  0  1  0  0  0  0  0  0
   91.9676   94.9126  -50.0601 H   0  0  0  1  0  1  0  0  0  0  0  0
   90.2769   95.0734  -50.6421 H   0  0  0  1  0  1  0  0  0  0  0  0
   90.6365   92.9864  -53.6562 H   0  0  0  1  0  1  0  0  0  0  0  0
   90.9626   94.7525  -53.6732 H   0  0  0  1  0  1  0  0  0  0  0  0
   89.5765   94.1052  -52.7333 H   0  0  0  1  0  1  0  0  0  0  0  0
   93.6133   93.6367  -51.3181 H   0  0  0  1  0  1  0  0  0  0  0  0
   93.2726   94.4511  -52.8824 H   0  0  0  1  0  1  0  0  0  0  0  0
   93.1403   92.6639  -52.7531 H   0  0  0  1  0  1  0  0  0  0  0  0
  1  7  1  0  0  0  0
  1 23  1  0  0  0  0
  1 34  1  0  0  0  0
  2 10  1  0  0  0  0
  2 11  1  0  0  0  0
  2 22  1  0  0  0  0
  2 35  1  0  0  0  0
  3 16  1  0  0  0  0
  3 17  1  0  0  0  0
  3 19  1  0  0  0  0
  3 40  1  0  0  0  0
  4  5  1  0  0  0  0
  4  9  2  0  0  0  0
  4 12  1  0  0  0  0
  5  6  3  0  0  0  0
  6  7  1  0  0  0  0
  7 32  1  0  0  0  0
  7 33  1  0  0  0  0
  8 10  1  0  0  0  0
  8 12  2  0  0  0  0
  8 14  1  0  0  0  0
  9 13  1  0  0  0  0
  9 37  1  0  0  0  0
 10 38  1  0  0  0  0
 10 39  1  0  0  0  0
 11 15  1  0  0  0  0
 11 41  1  0  0  0  0
 11 42  1  0  0  0  0
 12 43  1  0  0  0  0
 13 14  2  0  0  0  0
 13 31  1  0  0  0  0
 14 28  1  0  0  0  0
 15 16  1  0  0  0  0
 15 44  1  0  0  0  0
 15 45  1  0  0  0  0
 16 21  1  0  0  0  0
 16 46  1  0  0  0  0
 17 18  1  0  0  0  0
 17 47  1  0  0  0  0
 17 48  1  0  0  0  0
 18 49  1  0  0  0  0
 18 50  1  0  0  0  0
 18 51  1  0  0  0  0
 19 20  1  0  0  0  0
 19 52  1  0  0  0  0
 19 53  1  0  0  0  0
 20 54  1  0  0  0  0
 20 55  1  0  0  0  0
 20 56  1  0  0  0  0
 21 22  1  0  0  0  0
 21 57  1  0  0  0  0
 21 58  1  0  0  0  0
 22 59  1  0  0  0  0
 22 60  1  0  0  0  0
 23 29  1  0  0  0  0
 23 30  2  0  0  0  0
 24 25  1  0  0  0  0
 24 26  1  0  0  0  0
 24 27  1  0  0  0  0
 24 29  1  0  0  0  0
 25 61  1  0  0  0  0
 25 62  1  0  0  0  0
 25 63  1  0  0  0  0
 26 64  1  0  0  0  0
 26 65  1  0  0  0  0
 26 66  1  0  0  0  0
 27 67  1  0  0  0  0
 27 68  1  0  0  0  0
 27 69  1  0  0  0  0
 28 36  1  0  0  0  0
M  END
> <ConfScore>
-0.679264 

$$$$
4ago


 69 70  0  0  0  0  0  0  0  0999 V2000
   91.1554   91.2821  -49.2504 N   0  0  0  1  0  3  0  0  0  0  0  0
   90.3683   98.3703  -44.5750 N   0  3  0  1  0  4  0  0  0  0  0  0
   92.2965  102.1278  -43.7275 N   0  3  0  1  0  4  0  0  0  0  0  0
   91.2337   93.6144  -45.1525 C   0  0  0  1  0  3  0  0  0  0  0  0
   91.3933   92.5817  -46.1220 C   0  0  0  1  0  2  0  0  0  0  0  0
   91.5051   91.7512  -46.9740 C   0  0  0  1  0  2  0  0  0  0  0  0
   91.6473   90.7242  -48.0102 C   0  0  0  1  0  4  0  0  0  0  0  0
   90.5014   95.8938  -44.7858 C   0  0  0  1  0  3  0  0  0  0  0  0
   91.5924   93.4805  -43.8084 C   0  0  0  1  0  3  0  0  0  0  0  0
   89.9050   97.1660  -45.3350 C   0  0  0  1  0  4  0  0  0  0  0  0
   89.7773   99.6388  -45.1311 C   0  0  0  1  0  4  0  0  0  0  0  0
   90.7019   94.8197  -45.6475 C   0  0  0  1  0  3  0  0  0  0  0  0
   91.3808   94.5707  -42.9650 C   0  0  0  1  0  3  0  0  0  0  0  0
   90.8444   95.7888  -43.4150 C   0  0  0  1  0  3  0  0  0  0  0  0
   90.2381  100.8197  -44.2908 C   0  0  0  1  0  4  0  0  0  0  0  0
   91.7591  100.8630  -44.4231 C   0  0  0  1  0  4  0  0  0  0  0  0
   93.7191  102.5305  -44.1355 C   0  0  0  1  0  4  0  0  0  0  0  0
   94.1146  103.7841  -43.3771 C   0  0  0  1  0  4  0  0  0  0  0  0
   91.3765  103.3342  -43.5803 C   0  0  0  1  0  4  0  0  0  0  0  0
   90.9244  103.9543  -44.8971 C   0  0  0  1  0  4  0  0  0  0  0  0
   92.3754   99.6202  -43.7663 C   0  0  0  1  0  4  0  0  0  0  0  0
   91.8687   98.4061  -44.5276 C   0  0  0  1  0  4  0  0  0  0  0  0
   91.7675   92.3507  -49.8405 C   0  0  0  1  0  3  0  0  0  0  0  0
   91.5486   93.7151  -51.8624 C   0  0  0  1  0  4  0  0  0  0  0  0
   93.0135   93.3628  -52.1457 C   0  0  0  1  0  4  0  0  0  0  0  0
   91.5186   95.0904  -51.1825 C   0  0  0  1  0  4  0  0  0  0  0  0
   90.7555   93.7106  -53.1750 C   0  0  0  1  0  4  0  0  0  0  0  0
   90.6489   96.8591  -42.6002 O   0  0  0  1  0  2  0  0  0  0  0  0
   91.0972   92.6542  -50.9776 O   0  0  0  1  0  2  0  0  0  0  0  0
   92.7811   92.8809  -49.4110 O   0  0  0  1  0  1  0  0  0  0  0  0
   91.8884   94.4097  -40.9004 I   0  0  0  1  0  1  0  0  0  0  0  0
   91.0592   89.8353  -47.7401 H   0  0  0  1  0  1  0  0  0  0  0  0
   92.7050   90.4445  -48.1187 H   0  0  0  1  0  1  0  0  0  0  0  0
   90.3510   90.8778  -49.6852 H   0  0  0  1  0  1  0  0  0  0  0  0
   90.0347   98.3007  -43.6266 H   0  0  0  1  0  1  0  0  0  0  0  0
   90.9232   96.6382  -41.7172 H   0  0  0  1  0  1  0  0  0  0  0  0
   92.0220   92.5575  -43.4340 H   0  0  0  1  0  1  0  0  0  0  0  0
   90.2035   97.2734  -46.3890 H   0  0  0  1  0  1  0  0  0  0  0  0
   88.8083   97.1030  -45.2684 H   0  0  0  1  0  1  0  0  0  0  0  0
   92.4042  101.8159  -42.7761 H   0  0  0  1  0  1  0  0  0  0  0  0
   88.6795   99.5751  -45.1039 H   0  0  0  1  0  1  0  0  0  0  0  0
   90.1117   99.7749  -46.1702 H   0  0  0  1  0  1  0  0  0  0  0  0
   90.4485   94.9112  -46.6968 H   0  0  0  1  0  1  0  0  0  0  0  0
   89.9501  100.6757  -43.2389 H   0  0  0  1  0  1  0  0  0  0  0  0
   89.7951  101.7533  -44.6684 H   0  0  0  1  0  1  0  0  0  0  0  0
   92.0322  100.8858  -45.4890 H   0  0  0  1  0  1  0  0  0  0  0  0
   93.7512  102.7283  -45.2170 H   0  0  0  1  0  1  0  0  0  0  0  0
   94.4174  101.7161  -43.8905 H   0  0  0  1  0  1  0  0  0  0  0  0
   93.4145  104.5973  -43.6216 H   0  0  0  1  0  1  0  0  0  0  0  0
   95.1348  104.0797  -43.6636 H   0  0  0  1  0  1  0  0  0  0  0  0
   94.0804  103.5845  -42.2957 H   0  0  0  1  0  1  0  0  0  0  0  0
   91.9123  104.1050  -43.0053 H   0  0  0  1  0  1  0  0  0  0  0  0
   90.4821  103.0168  -43.0251 H   0  0  0  1  0  1  0  0  0  0  0  0
   90.3903  103.1988  -45.4926 H   0  0  0  1  0  1  0  0  0  0  0  0
   91.8034  104.3072  -45.4561 H   0  0  0  1  0  1  0  0  0  0  0  0
   90.2542  104.8022  -44.6936 H   0  0  0  1  0  1  0  0  0  0  0  0
   92.0660   99.5593  -42.7129 H   0  0  0  1  0  1  0  0  0  0  0  0
   93.4733   99.6694  -43.8245 H   0  0  0  1  0  1  0  0  0  0  0  0
   92.2576   98.4419  -45.5564 H   0  0  0  1  0  1  0  0  0  0  0  0
   92.2318   97.4954  -44.0294 H   0  0  0  1  0  1  0  0  0  0  0  0
   93.4524   94.1240  -52.8064 H   0  0  0  1  0  1  0  0  0  0  0  0
   93.0668   92.3798  -52.6346 H   0  0  0  1  0  1  0  0  0  0  0  0
   93.5727   93.3329  -51.1998 H   0  0  0  1  0  1  0  0  0  0  0  0
   90.4898   95.3219  -50.8690 H   0  0  0  1  0  1  0  0  0  0  0  0
   91.8669   95.8577  -51.8900 H   0  0  0  1  0  1  0  0  0  0  0  0
   92.1771   95.0787  -50.3023 H   0  0  0  1  0  1  0  0  0  0  0  0
   90.9074   92.7511  -53.6917 H   0  0  0  1  0  1  0  0  0  0  0  0
   91.1046   94.5321  -53.8171 H   0  0  0  1  0  1  0  0  0  0  0  0
   89.6851   93.8442  -52.9566 H   0  0  0  1  0  1  0  0  0  0  0  0
  1  7  1  0  0  0  0
  1 23  1  0  0  0  0
  1 34  1  0  0  0  0
  2 10  1  0  0  0  0
  2 11  1  0  0  0  0
  2 22  1  0  0  0  0
  2 35  1  0  0  0  0
  3 16  1  0  0  0  0
  3 17  1  0  0  0  0
  3 19  1  0  0  0  0
  3 40  1  0  0  0  0
  4  5  1  0  0  0  0
  4  9  2  0  0  0  0
  4 12  1  0  0  0  0
  5  6  3  0  0  0  0
  6  7  1  0  0  0  0
  7 32  1  0  0  0  0
  7 33  1  0  0  0  0
  8 10  1  0  0  0  0
  8 12  2  0  0  0  0
  8 14  1  0  0  0  0
  9 13  1  0  0  0  0
  9 37  1  0  0  0  0
 10 38  1  0  0  0  0
 10 39  1  0  0  0  0
 11 15  1  0  0  0  0
 11 41  1  0  0  0  0
 11 42  1  0  0  0  0
 12 43  1  0  0  0  0
 13 14  2  0  0  0  0
 13 31  1  0  0  0  0
 14 28  1  0  0  0  0
 15 16  1  0  0  0  0
 15 44  1  0  0  0  0
 15 45  1  0  0  0  0
 16 21  1  0  0  0  0
 16 46  1  0  0  0  0
 17 18  1  0  0  0  0
 17 47  1  0  0  0  0
 17 48  1  0  0  0  0
 18 49  1  0  0  0  0
 18 50  1  0  0  0  0
 18 51  1  0  0  0  0
 19 20  1  0  0  0  0
 19 52  1  0  0  0  0
 19 53  1  0  0  0  0
 20 54  1  0  0  0  0
 20 55  1  0  0  0  0
 20 56  1  0  0  0  0
 21 22  1  0  0  0  0
 21 57  1  0  0  0  0
 21 58  1  0  0  0  0
 22 59  1  0  0  0  0
 22 60  1  0  0  0  0
 23 29  1  0  0  0  0
 23 30  2  0  0  0  0
 24 25  1  0  0  0  0
 24 26  1  0  0  0  0
 24 27  1  0  0  0  0
 24 29  1  0  0  0  0
 25 61  1  0  0  0  0
 25 62  1  0  0  0  0
 25 63  1  0  0  0  0
 26 64  1  0  0  0  0
 26 65  1  0  0  0  0
 26 66  1  0  0  0  0
 27 67  1  0  0  0  0
 27 68  1  0  0  0  0
 27 69  1  0  0  0  0
 28 36  1  0  0  0  0
M  END
> <ConfScore>
-0.674104 

$$$$
4ago


 69 70  0  0  0  0  0  0  0  0999 V2000
   91.1554   91.2821  -49.2504 N   0  0  0  1  0  3  0  0  0  0  0  0
   90.3683   98.3703  -44.5750 N   0  3  0  1  0  4  0  0  0  0  0  0
   92.2965  102.1278  -43.7275 N   0  3  0  1  0  4  0  0  0  0  0  0
   91.2337   93.6144  -45.1525 C   0  0  0  1  0  3  0  0  0  0  0  0
   91.3933   92.5817  -46.1220 C   0  0  0  1  0  2  0  0  0  0  0  0
   91.5051   91.7512  -46.9740 C   0  0  0  1  0  2  0  0  0  0  0  0
   91.6473   90.7242  -48.0102 C   0  0  0  1  0  4  0  0  0  0  0  0
   90.5014   95.8938  -44.7858 C   0  0  0  1  0  3  0  0  0  0  0  0
   91.5924   93.4805  -43.8084 C   0  0  0  1  0  3  0  0  0  0  0  0
   89.9050   97.1660  -45.3350 C   0  0  0  1  0  4  0  0  0  0  0  0
   89.7773   99.6388  -45.1311 C   0  0  0  1  0  4  0  0  0  0  0  0
   90.7019   94.8197  -45.6475 C   0  0  0  1  0  3  0  0  0  0  0  0
   91.3808   94.5707  -42.9650 C   0  0  0  1  0  3  0  0  0  0  0  0
   90.8444   95.7888  -43.4150 C   0  0  0  1  0  3  0  0  0  0  0  0
   90.2381  100.8197  -44.2908 C   0  0  0  1  0  4  0  0  0  0  0  0
   91.7591  100.8630  -44.4231 C   0  0  0  1  0  4  0  0  0  0  0  0
   93.7191  102.5305  -44.1355 C   0  0  0  1  0  4  0  0  0  0  0  0
   94.1146  103.7841  -43.3771 C   0  0  0  1  0  4  0  0  0  0  0  0
   91.3765  103.3342  -43.5803 C   0  0  0  1  0  4  0  0  0  0  0  0
   90.9244  103.9543  -44.8971 C   0  0  0  1  0  4  0  0  0  0  0  0
   92.3754   99.6202  -43.7663 C   0  0  0  1  0  4  0  0  0  0  0  0
   91.8687   98.4061  -44.5276 C   0  0  0  1  0  4  0  0  0  0  0  0
   91.7675   92.3507  -49.8405 C   0  0  0  1  0  3  0  0  0  0  0  0
   91.5486   93.7151  -51.8624 C   0  0  0  1  0  4  0  0  0  0  0  0
   91.6213   94.9484  -50.9547 C   0  0  0  1  0  4  0  0  0  0  0  0
   90.5370   94.0109  -52.9777 C   0  0  0  1  0  4  0  0  0  0  0  0
   92.9421   93.4069  -52.4237 C   0  0  0  1  0  4  0  0  0  0  0  0
   90.6489   96.8591  -42.6002 O   0  0  0  1  0  2  0  0  0  0  0  0
   91.0972   92.6542  -50.9776 O   0  0  0  1  0  2  0  0  0  0  0  0
   92.7811   92.8809  -49.4110 O   0  0  0  1  0  1  0  0  0  0  0  0
   91.8884   94.4097  -40.9004 I   0  0  0  1  0  1  0  0  0  0  0  0
   91.0592   89.8353  -47.7401 H   0  0  0  1  0  1  0  0  0  0  0  0
   92.7050   90.4445  -48.1187 H   0  0  0  1  0  1  0  0  0  0  0  0
   90.3510   90.8778  -49.6852 H   0  0  0  1  0  1  0  0  0  0  0  0
   90.0347   98.3007  -43.6266 H   0  0  0  1  0  1  0  0  0  0  0  0
   90.9232   96.6382  -41.7172 H   0  0  0  1  0  1  0  0  0  0  0  0
   92.0220   92.5575  -43.4340 H   0  0  0  1  0  1  0  0  0  0  0  0
   90.2035   97.2734  -46.3890 H   0  0  0  1  0  1  0  0  0  0  0  0
   88.8083   97.1030  -45.2684 H   0  0  0  1  0  1  0  0  0  0  0  0
   92.4042  101.8159  -42.7761 H   0  0  0  1  0  1  0  0  0  0  0  0
   88.6795   99.5751  -45.1039 H   0  0  0  1  0  1  0  0  0  0  0  0
   90.1117   99.7749  -46.1702 H   0  0  0  1  0  1  0  0  0  0  0  0
   90.4485   94.9112  -46.6968 H   0  0  0  1  0  1  0  0  0  0  0  0
   89.9501  100.6757  -43.2389 H   0  0  0  1  0  1  0  0  0  0  0  0
   89.7951  101.7533  -44.6684 H   0  0  0  1  0  1  0  0  0  0  0  0
   92.0322  100.8858  -45.4890 H   0  0  0  1  0  1  0  0  0  0  0  0
   93.7512  102.7283  -45.2170 H   0  0  0  1  0  1  0  0  0  0  0  0
   94.4174  101.7161  -43.8905 H   0  0  0  1  0  1  0  0  0  0  0  0
   93.4145  104.5973  -43.6216 H   0  0  0  1  0  1  0  0  0  0  0  0
   95.1348  104.0797  -43.6636 H   0  0  0  1  0  1  0  0  0  0  0  0
   94.0804  103.5845  -42.2957 H   0  0  0  1  0  1  0  0  0  0  0  0
   91.9123  104.1050  -43.0053 H   0  0  0  1  0  1  0  0  0  0  0  0
   90.4821  103.0168  -43.0251 H   0  0  0  1  0  1  0  0  0  0  0  0
   90.3903  103.1988  -45.4926 H   0  0  0  1  0  1  0  0  0  0  0  0
   91.8034  104.3072  -45.4561 H   0  0  0  1  0  1  0  0  0  0  0  0
   90.2542  104.8022  -44.6936 H   0  0  0  1  0  1  0  0  0  0  0  0
   92.0660   99.5593  -42.7129 H   0  0  0  1  0  1  0  0  0  0  0  0
   93.4733   99.6694  -43.8245 H   0  0  0  1  0  1  0  0  0  0  0  0
   92.2576   98.4419  -45.5564 H   0  0  0  1  0  1  0  0  0  0  0  0
   92.2318   97.4954  -44.0294 H   0  0  0  1  0  1  0  0  0  0  0  0
   91.9466   95.8181  -51.5432 H   0  0  0  1  0  1  0  0  0  0  0  0
   92.3407   94.7658  -50.1440 H   0  0  0  1  0  1  0  0  0  0  0  0
   90.6285   95.1471  -50.5263 H   0  0  0  1  0  1  0  0  0  0  0  0
   90.3826   93.1048  -53.5822 H   0  0  0  1  0  1  0  0  0  0  0  0
   90.9227   94.8173  -53.6192 H   0  0  0  1  0  1  0  0  0  0  0  0
   89.5815   94.3230  -52.5327 H   0  0  0  1  0  1  0  0  0  0  0  0
   93.6617   93.3278  -51.5951 H   0  0  0  1  0  1  0  0  0  0  0  0
   93.2513   94.2153  -53.1019 H   0  0  0  1  0  1  0  0  0  0  0  0
   92.9123   92.4553  -52.9758 H   0  0  0  1  0  1  0  0  0  0  0  0
  1  7  1  0  0  0  0
  1 23  1  0  0  0  0
  1 34  1  0  0  0  0
  2 10  1  0  0  0  0
  2 11  1  0  0  0  0
  2 22  1  0  0  0  0
  2 35  1  0  0  0  0
  3 16  1  0  0  0  0
  3 17  1  0  0  0  0
  3 19  1  0  0  0  0
  3 40  1  0  0  0  0
  4  5  1  0  0  0  0
  4  9  2  0  0  0  0
  4 12  1  0  0  0  0
  5  6  3  0  0  0  0
  6  7  1  0  0  0  0
  7 32  1  0  0  0  0
  7 33  1  0  0  0  0
  8 10  1  0  0  0  0
  8 12  2  0  0  0  0
  8 14  1  0  0  0  0
  9 13  1  0  0  0  0
  9 37  1  0  0  0  0
 10 38  1  0  0  0  0
 10 39  1  0  0  0  0
 11 15  1  0  0  0  0
 11 41  1  0  0  0  0
 11 42  1  0  0  0  0
 12 43  1  0  0  0  0
 13 14  2  0  0  0  0
 13 31  1  0  0  0  0
 14 28  1  0  0  0  0
 15 16  1  0  0  0  0
 15 44  1  0  0  0  0
 15 45  1  0  0  0  0
 16 21  1  0  0  0  0
 16 46  1  0  0  0  0
 17 18  1  0  0  0  0
 17 47  1  0  0  0  0
 17 48  1  0  0  0  0
 18 49  1  0  0  0  0
 18 50  1  0  0  0  0
 18 51  1  0  0  0  0
 19 20  1  0  0  0  0
 19 52  1  0  0  0  0
 19 53  1  0  0  0  0
 20 54  1  0  0  0  0
 20 55  1  0  0  0  0
 20 56  1  0  0  0  0
 21 22  1  0  0  0  0
 21 57  1  0  0  0  0
 21 58  1  0  0  0  0
 22 59  1  0  0  0  0
 22 60  1  0  0  0  0
 23 29  1  0  0  0  0
 23 30  2  0  0  0  0
 24 25  1  0  0  0  0
 24 26  1  0  0  0  0
 24 27  1  0  0  0  0
 24 29  1  0  0  0  0
 25 61  1  0  0  0  0
 25 62  1  0  0  0  0
 25 63  1  0  0  0  0
 26 64  1  0  0  0  0
 26 65  1  0  0  0  0
 26 66  1  0  0  0  0
 27 67  1  0  0  0  0
 27 68  1  0  0  0  0
 27 69  1  0  0  0  0
 28 36  1  0  0  0  0
M  END
> <ConfScore>
-0.674104 

$$$$
4ago


 69 70  0  0  0  0  0  0  0  0999 V2000
  124.1149  100.5411  -49.3604 N   0  0  0  1  0  3  0  0  0  0  0  0
  123.9473  107.6542  -44.6758 N   0  3  0  1  0  4  0  0  0  0  0  0
  125.4511  111.5657  -43.7236 N   0  3  0  1  0  4  0  0  0  0  0  0
  124.4410  102.8420  -45.2570 C   0  0  0  1  0  3  0  0  0  0  0  0
  124.5030  101.8040  -46.2320 C   0  0  0  1  0  2  0  0  0  0  0  0
  124.5352  100.9709  -47.0882 C   0  0  0  1  0  2  0  0  0  0  0  0
  124.5792   99.9403  -48.1297 C   0  0  0  1  0  4  0  0  0  0  0  0
  123.8990  105.1710  -44.8720 C   0  0  0  1  0  3  0  0  0  0  0  0
  124.8080  102.6740  -43.9190 C   0  0  0  1  0  3  0  0  0  0  0  0
  123.4000  106.4840  -45.4060 C   0  0  0  1  0  4  0  0  0  0  0  0
  123.0125  108.8238  -44.7871 C   0  0  0  1  0  4  0  0  0  0  0  0
  124.0000  104.0880  -45.7400 C   0  0  0  1  0  3  0  0  0  0  0  0
  124.6970  103.7740  -43.0690 C   0  0  0  1  0  3  0  0  0  0  0  0
  124.2530  105.0330  -43.5070 C   0  0  0  1  0  3  0  0  0  0  0  0
  123.5615  109.9492  -43.9281 C   0  0  0  1  0  4  0  0  0  0  0  0
  124.9177  110.3425  -44.4929 C   0  0  0  1  0  4  0  0  0  0  0  0
  126.9649  111.7853  -43.8353 C   0  0  0  1  0  4  0  0  0  0  0  0
  127.6782  110.4855  -43.5114 C   0  0  0  1  0  4  0  0  0  0  0  0
  124.6729  112.8746  -43.7914 C   0  0  0  1  0  4  0  0  0  0  0  0
  123.1905  112.7515  -43.4594 C   0  0  0  1  0  4  0  0  0  0  0  0
  125.8871  109.1525  -44.3612 C   0  0  0  1  0  4  0  0  0  0  0  0
  125.3231  107.9915  -45.1576 C   0  0  0  1  0  4  0  0  0  0  0  0
  123.0143  100.0636  -50.0126 C   0  0  0  1  0  3  0  0  0  0  0  0
  121.6780  100.5841  -51.9979 C   0  0  0  1  0  4  0  0  0  0  0  0
  120.4637  100.8608  -51.1039 C   0  0  0  1  0  4  0  0  0  0  0  0
  121.5918   99.1268  -52.4707 C   0  0  0  1  0  4  0  0  0  0  0  0
  121.6838  101.5663  -53.1757 C   0  0  0  1  0  4  0  0  0  0  0  0
  124.1560  106.1120  -42.6860 O   0  0  0  1  0  2  0  0  0  0  0  0
  122.8165  100.8123  -51.1239 O   0  0  0  1  0  2  0  0  0  0  0  0
  122.3193   99.1472  -49.6003 O   0  0  0  1  0  1  0  0  0  0  0  0
  125.2210  103.5640  -41.0130 I   0  0  0  1  0  1  0  0  0  0  0  0
  123.9261   99.1002  -47.8533 H   0  0  0  1  0  1  0  0  0  0  0  0
  125.6094   99.5775  -48.2552 H   0  0  0  1  0  1  0  0  0  0  0  0
  124.6093  101.3218  -49.7422 H   0  0  0  1  0  1  0  0  0  0  0  0
  124.0165  107.4074  -43.7013 H   0  0  0  1  0  1  0  0  0  0  0  0
  124.4250  105.8660  -41.8080 H   0  0  0  1  0  1  0  0  0  0  0  0
  125.1680  101.7180  -43.5540 H   0  0  0  1  0  1  0  0  0  0  0  0
  122.3025  106.5011  -45.3250 H   0  0  0  1  0  1  0  0  0  0  0  0
  123.6904  106.5650  -46.4644 H   0  0  0  1  0  1  0  0  0  0  0  0
  125.3245  111.2840  -42.7651 H   0  0  0  1  0  1  0  0  0  0  0  0
  122.0122  108.5374  -44.4304 H   0  0  0  1  0  1  0  0  0  0  0  0
  122.9493  109.1523  -45.8350 H   0  0  0  1  0  1  0  0  0  0  0  0
  123.7390  104.2040  -46.7850 H   0  0  0  1  0  1  0  0  0  0  0  0
  123.6734  109.6065  -42.8888 H   0  0  0  1  0  1  0  0  0  0  0  0
  122.8779  110.8107  -43.9585 H   0  0  0  1  0  1  0  0  0  0  0  0
  124.8101  110.6027  -45.5568 H   0  0  0  1  0  1  0  0  0  0  0  0
  127.2784  112.5647  -43.1253 H   0  0  0  1  0  1  0  0  0  0  0  0
  127.2175  112.0988  -44.8595 H   0  0  0  1  0  1  0  0  0  0  0  0
  127.4371  110.1812  -42.4817 H   0  0  0  1  0  1  0  0  0  0  0  0
  128.7646  110.6296  -43.6067 H   0  0  0  1  0  1  0  0  0  0  0  0
  127.3490  109.7027  -44.2109 H   0  0  0  1  0  1  0  0  0  0  0  0
  124.7626  113.2735  -44.8135 H   0  0  0  1  0  1  0  0  0  0  0  0
  125.1267  113.5799  -43.0804 H   0  0  0  1  0  1  0  0  0  0  0  0
  123.0759  112.3483  -42.4422 H   0  0  0  1  0  1  0  0  0  0  0  0
  122.7095  112.0730  -44.1791 H   0  0  0  1  0  1  0  0  0  0  0  0
  122.7171  113.7426  -43.5168 H   0  0  0  1  0  1  0  0  0  0  0  0
  125.9842  108.8664  -43.3039 H   0  0  0  1  0  1  0  0  0  0  0  0
  126.8754  109.4315  -44.7568 H   0  0  0  1  0  1  0  0  0  0  0  0
  125.2779  108.2683  -46.2216 H   0  0  0  1  0  1  0  0  0  0  0  0
  125.9762  107.1152  -45.0340 H   0  0  0  1  0  1  0  0  0  0  0  0
  119.5409  100.7127  -51.6829 H   0  0  0  1  0  1  0  0  0  0  0  0
  120.5044  101.8970  -50.7396 H   0  0  0  1  0  1  0  0  0  0  0  0
  120.4736  100.1705  -50.2484 H   0  0  0  1  0  1  0  0  0  0  0  0
  121.4922   98.4639  -51.5986 H   0  0  0  1  0  1  0  0  0  0  0  0
  122.5052   98.8662  -53.0261 H   0  0  0  1  0  1  0  0  0  0  0  0
  120.7179   99.0052  -53.1264 H   0  0  0  1  0  1  0  0  0  0  0  0
  121.6171  102.5962  -52.7944 H   0  0  0  1  0  1  0  0  0  0  0  0
  120.8236  101.3606  -53.8289 H   0  0  0  1  0  1  0  0  0  0  0  0
  122.6165  101.4466  -53.7477 H   0  0  0  1  0  1  0  0  0  0  0  0
  1  7  1  0  0  0  0
  1 23  1  0  0  0  0
  1 34  1  0  0  0  0
  2 10  1  0  0  0  0
  2 11  1  0  0  0  0
  2 22  1  0  0  0  0
  2 35  1  0  0  0  0
  3 16  1  0  0  0  0
  3 17  1  0  0  0  0
  3 19  1  0  0  0  0
  3 40  1  0  0  0  0
  4  5  1  0  0  0  0
  4  9  2  0  0  0  0
  4 12  1  0  0  0  0
  5  6  3  0  0  0  0
  6  7  1  0  0  0  0
  7 32  1  0  0  0  0
  7 33  1  0  0  0  0
  8 10  1  0  0  0  0
  8 12  2  0  0  0  0
  8 14  1  0  0  0  0
  9 13  1  0  0  0  0
  9 37  1  0  0  0  0
 10 38  1  0  0  0  0
 10 39  1  0  0  0  0
 11 15  1  0  0  0  0
 11 41  1  0  0  0  0
 11 42  1  0  0  0  0
 12 43  1  0  0  0  0
 13 14  2  0  0  0  0
 13 31  1  0  0  0  0
 14 28  1  0  0  0  0
 15 16  1  0  0  0  0
 15 44  1  0  0  0  0
 15 45  1  0  0  0  0
 16 21  1  0  0  0  0
 16 46  1  0  0  0  0
 17 18  1  0  0  0  0
 17 47  1  0  0  0  0
 17 48  1  0  0  0  0
 18 49  1  0  0  0  0
 18 50  1  0  0  0  0
 18 51  1  0  0  0  0
 19 20  1  0  0  0  0
 19 52  1  0  0  0  0
 19 53  1  0  0  0  0
 20 54  1  0  0  0  0
 20 55  1  0  0  0  0
 20 56  1  0  0  0  0
 21 22  1  0  0  0  0
 21 57  1  0  0  0  0
 21 58  1  0  0  0  0
 22 59  1  0  0  0  0
 22 60  1  0  0  0  0
 23 29  1  0  0  0  0
 23 30  2  0  0  0  0
 24 25  1  0  0  0  0
 24 26  1  0  0  0  0
 24 27  1  0  0  0  0
 24 29  1  0  0  0  0
 25 61  1  0  0  0  0
 25 62  1  0  0  0  0
 25 63  1  0  0  0  0
 26 64  1  0  0  0  0
 26 65  1  0  0  0  0
 26 66  1  0  0  0  0
 27 67  1  0  0  0  0
 27 68  1  0  0  0  0
 27 69  1  0  0  0  0
 28 36  1  0  0  0  0
M  END
> <ConfScore>
-0.672445 

$$$$
4ago


 69 70  0  0  0  0  0  0  0  0999 V2000
  123.9790  100.2820  -49.2222 N   0  0  0  1  0  3  0  0  0  0  0  0
  124.4876  107.3549  -45.9165 N   0  3  0  1  0  4  0  0  0  0  0  0
  126.8999  109.8636  -48.4376 N   0  3  0  1  0  4  0  0  0  0  0  0
  124.4410  102.8420  -45.2570 C   0  0  0  1  0  3  0  0  0  0  0  0
  124.5030  101.8040  -46.2320 C   0  0  0  1  0  2  0  0  0  0  0  0
  124.6100  100.9470  -47.0580 C   0  0  0  1  0  2  0  0  0  0  0  0
  124.7490   99.8890  -48.0630 C   0  0  0  1  0  4  0  0  0  0  0  0
  123.8990  105.1710  -44.8720 C   0  0  0  1  0  3  0  0  0  0  0  0
  124.8080  102.6740  -43.9190 C   0  0  0  1  0  3  0  0  0  0  0  0
  123.4000  106.4840  -45.4060 C   0  0  0  1  0  4  0  0  0  0  0  0
  123.9383  108.6901  -46.3286 C   0  0  0  1  0  4  0  0  0  0  0  0
  124.0000  104.0880  -45.7400 C   0  0  0  1  0  3  0  0  0  0  0  0
  124.6970  103.7740  -43.0690 C   0  0  0  1  0  3  0  0  0  0  0  0
  124.2530  105.0330  -43.5070 C   0  0  0  1  0  3  0  0  0  0  0  0
  125.1046  109.5763  -46.7288 C   0  0  0  1  0  4  0  0  0  0  0  0
  125.7873  108.9302  -47.9245 C   0  0  0  1  0  4  0  0  0  0  0  0
  127.9669  109.1782  -49.3001 C   0  0  0  1  0  4  0  0  0  0  0  0
  127.3484  108.7790  -50.6272 C   0  0  0  1  0  4  0  0  0  0  0  0
  126.5179  111.2369  -48.9776 C   0  0  0  1  0  4  0  0  0  0  0  0
  125.7409  111.2116  -50.2886 C   0  0  0  1  0  4  0  0  0  0  0  0
  126.3717  107.5691  -47.5012 C   0  0  0  1  0  4  0  0  0  0  0  0
  125.2297  106.6884  -47.0318 C   0  0  0  1  0  4  0  0  0  0  0  0
  124.2549  101.4346  -49.9006 C   0  0  0  1  0  3  0  0  0  0  0  0
  123.4115  102.6871  -51.8287 C   0  0  0  1  0  4  0  0  0  0  0  0
  122.2780  102.4062  -52.8220 C   0  0  0  1  0  4  0  0  0  0  0  0
  124.7226  102.7689  -52.6219 C   0  0  0  1  0  4  0  0  0  0  0  0
  123.1210  103.9888  -51.0717 C   0  0  0  1  0  4  0  0  0  0  0  0
  124.1560  106.1120  -42.6860 O   0  0  0  1  0  2  0  0  0  0  0  0
  123.3824  101.5448  -50.9307 O   0  0  0  1  0  2  0  0  0  0  0  0
  125.1785  102.1856  -49.6251 O   0  0  0  1  0  1  0  0  0  0  0  0
  125.2210  103.5640  -41.0130 I   0  0  0  1  0  1  0  0  0  0  0  0
  124.3655   98.9394  -47.6630 H   0  0  0  1  0  1  0  0  0  0  0  0
  125.8066   99.7698  -48.3385 H   0  0  0  1  0  1  0  0  0  0  0  0
  123.2293   99.6986  -49.5340 H   0  0  0  1  0  1  0  0  0  0  0  0
  125.1402  107.5097  -45.1645 H   0  0  0  1  0  1  0  0  0  0  0  0
  124.4250  105.8660  -41.8080 H   0  0  0  1  0  1  0  0  0  0  0  0
  125.1680  101.7180  -43.5540 H   0  0  0  1  0  1  0  0  0  0  0  0
  122.8751  107.0148  -44.5971 H   0  0  0  1  0  1  0  0  0  0  0  0
  122.6972  106.2833  -46.2287 H   0  0  0  1  0  1  0  0  0  0  0  0
  127.3932  110.0902  -47.5894 H   0  0  0  1  0  1  0  0  0  0  0  0
  123.3958  109.1463  -45.4874 H   0  0  0  1  0  1  0  0  0  0  0  0
  123.2557  108.5652  -47.1822 H   0  0  0  1  0  1  0  0  0  0  0  0
  123.7390  104.2040  -46.7850 H   0  0  0  1  0  1  0  0  0  0  0  0
  125.8145  109.6612  -45.8927 H   0  0  0  1  0  1  0  0  0  0  0  0
  124.7378  110.5771  -47.0014 H   0  0  0  1  0  1  0  0  0  0  0  0
  125.0498  108.7714  -48.7257 H   0  0  0  1  0  1  0  0  0  0  0  0
  128.3402  108.2820  -48.7829 H   0  0  0  1  0  1  0  0  0  0  0  0
  128.8010  109.8740  -49.4769 H   0  0  0  1  0  1  0  0  0  0  0  0
  126.9590  109.6745  -51.1348 H   0  0  0  1  0  1  0  0  0  0  0  0
  126.5256  108.0706  -50.4502 H   0  0  0  1  0  1  0  0  0  0  0  0
  128.1128  108.3033  -51.2595 H   0  0  0  1  0  1  0  0  0  0  0  0
  127.4435  111.8105  -49.1395 H   0  0  0  1  0  1  0  0  0  0  0  0
  125.8997  111.7421  -48.2217 H   0  0  0  1  0  1  0  0  0  0  0  0
  124.8124  110.6373  -50.1522 H   0  0  0  1  0  1  0  0  0  0  0  0
  126.3543  110.7369  -51.0683 H   0  0  0  1  0  1  0  0  0  0  0  0
  125.4953  112.2402  -50.5905 H   0  0  0  1  0  1  0  0  0  0  0  0
  127.0926  107.7115  -46.6831 H   0  0  0  1  0  1  0  0  0  0  0  0
  126.8783  107.0988  -48.3574 H   0  0  0  1  0  1  0  0  0  0  0  0
  124.5404  106.5088  -47.8706 H   0  0  0  1  0  1  0  0  0  0  0  0
  125.6334  105.7289  -46.6769 H   0  0  0  1  0  1  0  0  0  0  0  0
  122.2191  103.2258  -53.5524 H   0  0  0  1  0  1  0  0  0  0  0  0
  121.3249  102.3305  -52.2797 H   0  0  0  1  0  1  0  0  0  0  0  0
  122.4771  101.4614  -53.3475 H   0  0  0  1  0  1  0  0  0  0  0  0
  124.8439  101.8566  -53.2244 H   0  0  0  1  0  1  0  0  0  0  0  0
  125.5686  102.8622  -51.9246 H   0  0  0  1  0  1  0  0  0  0  0  0
  124.6962  103.6459  -53.2842 H   0  0  0  1  0  1  0  0  0  0  0  0
  123.1668  104.8373  -51.7706 H   0  0  0  1  0  1  0  0  0  0  0  0
  123.8697  104.1264  -50.2783 H   0  0  0  1  0  1  0  0  0  0  0  0
  122.1169  103.9358  -50.6242 H   0  0  0  1  0  1  0  0  0  0  0  0
  1  7  1  0  0  0  0
  1 23  1  0  0  0  0
  1 34  1  0  0  0  0
  2 10  1  0  0  0  0
  2 11  1  0  0  0  0
  2 22  1  0  0  0  0
  2 35  1  0  0  0  0
  3 16  1  0  0  0  0
  3 17  1  0  0  0  0
  3 19  1  0  0  0  0
  3 40  1  0  0  0  0
  4  5  1  0  0  0  0
  4  9  2  0  0  0  0
  4 12  1  0  0  0  0
  5  6  3  0  0  0  0
  6  7  1  0  0  0  0
  7 32  1  0  0  0  0
  7 33  1  0  0  0  0
  8 10  1  0  0  0  0
  8 12  2  0  0  0  0
  8 14  1  0  0  0  0
  9 13  1  0  0  0  0
  9 37  1  0  0  0  0
 10 38  1  0  0  0  0
 10 39  1  0  0  0  0
 11 15  1  0  0  0  0
 11 41  1  0  0  0  0
 11 42  1  0  0  0  0
 12 43  1  0  0  0  0
 13 14  2  0  0  0  0
 13 31  1  0  0  0  0
 14 28  1  0  0  0  0
 15 16  1  0  0  0  0
 15 44  1  0  0  0  0
 15 45  1  0  0  0  0
 16 21  1  0  0  0  0
 16 46  1  0  0  0  0
 17 18  1  0  0  0  0
 17 47  1  0  0  0  0
 17 48  1  0  0  0  0
 18 49  1  0  0  0  0
 18 50  1  0  0  0  0
 18 51  1  0  0  0  0
 19 20  1  0  0  0  0
 19 52  1  0  0  0  0
 19 53  1  0  0  0  0
 20 54  1  0  0  0  0
 20 55  1  0  0  0  0
 20 56  1  0  0  0  0
 21 22  1  0  0  0  0
 21 57  1  0  0  0  0
 21 58  1  0  0  0  0
 22 59  1  0  0  0  0
 22 60  1  0  0  0  0
 23 29  1  0  0  0  0
 23 30  2  0  0  0  0
 24 25  1  0  0  0  0
 24 26  1  0  0  0  0
 24 27  1  0  0  0  0
 24 29  1  0  0  0  0
 25 61  1  0  0  0  0
 25 62  1  0  0  0  0
 25 63  1  0  0  0  0
 26 64  1  0  0  0  0
 26 65  1  0  0  0  0
 26 66  1  0  0  0  0
 27 67  1  0  0  0  0
 27 68  1  0  0  0  0
 27 69  1  0  0  0  0
 28 36  1  0  0  0  0
M  END
> <ConfScore>
-0.671157 

$$$$
4ago


 69 70  0  0  0  0  0  0  0  0999 V2000
  123.9790  100.2820  -49.2222 N   0  0  0  1  0  3  0  0  0  0  0  0
  124.4876  107.3549  -45.9165 N   0  3  0  1  0  4  0  0  0  0  0  0
  126.8999  109.8636  -48.4376 N   0  3  0  1  0  4  0  0  0  0  0  0
  124.4410  102.8420  -45.2570 C   0  0  0  1  0  3  0  0  0  0  0  0
  124.5030  101.8040  -46.2320 C   0  0  0  1  0  2  0  0  0  0  0  0
  124.6100  100.9470  -47.0580 C   0  0  0  1  0  2  0  0  0  0  0  0
  124.7490   99.8890  -48.0630 C   0  0  0  1  0  4  0  0  0  0  0  0
  123.8990  105.1710  -44.8720 C   0  0  0  1  0  3  0  0  0  0  0  0
  124.8080  102.6740  -43.9190 C   0  0  0  1  0  3  0  0  0  0  0  0
  123.4000  106.4840  -45.4060 C   0  0  0  1  0  4  0  0  0  0  0  0
  123.9383  108.6901  -46.3286 C   0  0  0  1  0  4  0  0  0  0  0  0
  124.0000  104.0880  -45.7400 C   0  0  0  1  0  3  0  0  0  0  0  0
  124.6970  103.7740  -43.0690 C   0  0  0  1  0  3  0  0  0  0  0  0
  124.2530  105.0330  -43.5070 C   0  0  0  1  0  3  0  0  0  0  0  0
  125.1046  109.5763  -46.7288 C   0  0  0  1  0  4  0  0  0  0  0  0
  125.7873  108.9302  -47.9245 C   0  0  0  1  0  4  0  0  0  0  0  0
  127.9669  109.1782  -49.3001 C   0  0  0  1  0  4  0  0  0  0  0  0
  127.3484  108.7790  -50.6272 C   0  0  0  1  0  4  0  0  0  0  0  0
  126.5179  111.2369  -48.9776 C   0  0  0  1  0  4  0  0  0  0  0  0
  125.7409  111.2116  -50.2886 C   0  0  0  1  0  4  0  0  0  0  0  0
  126.3717  107.5691  -47.5012 C   0  0  0  1  0  4  0  0  0  0  0  0
  125.2297  106.6884  -47.0318 C   0  0  0  1  0  4  0  0  0  0  0  0
  124.2549  101.4346  -49.9006 C   0  0  0  1  0  3  0  0  0  0  0  0
  123.4115  102.6871  -51.8287 C   0  0  0  1  0  4  0  0  0  0  0  0
  122.2780  102.4062  -52.8220 C   0  0  0  1  0  4  0  0  0  0  0  0
  124.7226  102.7689  -52.6219 C   0  0  0  1  0  4  0  0  0  0  0  0
  123.1210  103.9888  -51.0717 C   0  0  0  1  0  4  0  0  0  0  0  0
  124.1560  106.1120  -42.6860 O   0  0  0  1  0  2  0  0  0  0  0  0
  123.3824  101.5448  -50.9307 O   0  0  0  1  0  2  0  0  0  0  0  0
  125.1785  102.1856  -49.6251 O   0  0  0  1  0  1  0  0  0  0  0  0
  125.2210  103.5640  -41.0130 I   0  0  0  1  0  1  0  0  0  0  0  0
  124.3655   98.9394  -47.6630 H   0  0  0  1  0  1  0  0  0  0  0  0
  125.8066   99.7698  -48.3385 H   0  0  0  1  0  1  0  0  0  0  0  0
  123.2293   99.6986  -49.5340 H   0  0  0  1  0  1  0  0  0  0  0  0
  125.1402  107.5097  -45.1645 H   0  0  0  1  0  1  0  0  0  0  0  0
  124.4250  105.8660  -41.8080 H   0  0  0  1  0  1  0  0  0  0  0  0
  125.1680  101.7180  -43.5540 H   0  0  0  1  0  1  0  0  0  0  0  0
  122.8751  107.0148  -44.5971 H   0  0  0  1  0  1  0  0  0  0  0  0
  122.6972  106.2833  -46.2287 H   0  0  0  1  0  1  0  0  0  0  0  0
  127.3932  110.0902  -47.5894 H   0  0  0  1  0  1  0  0  0  0  0  0
  123.3958  109.1463  -45.4874 H   0  0  0  1  0  1  0  0  0  0  0  0
  123.2557  108.5652  -47.1822 H   0  0  0  1  0  1  0  0  0  0  0  0
  123.7390  104.2040  -46.7850 H   0  0  0  1  0  1  0  0  0  0  0  0
  125.8145  109.6612  -45.8927 H   0  0  0  1  0  1  0  0  0  0  0  0
  124.7378  110.5771  -47.0014 H   0  0  0  1  0  1  0  0  0  0  0  0
  125.0498  108.7714  -48.7257 H   0  0  0  1  0  1  0  0  0  0  0  0
  128.3402  108.2820  -48.7829 H   0  0  0  1  0  1  0  0  0  0  0  0
  128.8010  109.8740  -49.4769 H   0  0  0  1  0  1  0  0  0  0  0  0
  126.9590  109.6745  -51.1348 H   0  0  0  1  0  1  0  0  0  0  0  0
  126.5256  108.0706  -50.4502 H   0  0  0  1  0  1  0  0  0  0  0  0
  128.1128  108.3033  -51.2595 H   0  0  0  1  0  1  0  0  0  0  0  0
  127.4435  111.8105  -49.1395 H   0  0  0  1  0  1  0  0  0  0  0  0
  125.8997  111.7421  -48.2217 H   0  0  0  1  0  1  0  0  0  0  0  0
  124.8124  110.6373  -50.1522 H   0  0  0  1  0  1  0  0  0  0  0  0
  126.3543  110.7369  -51.0683 H   0  0  0  1  0  1  0  0  0  0  0  0
  125.4953  112.2402  -50.5905 H   0  0  0  1  0  1  0  0  0  0  0  0
  127.0926  107.7115  -46.6831 H   0  0  0  1  0  1  0  0  0  0  0  0
  126.8783  107.0988  -48.3574 H   0  0  0  1  0  1  0  0  0  0  0  0
  124.5404  106.5088  -47.8706 H   0  0  0  1  0  1  0  0  0  0  0  0
  125.6334  105.7289  -46.6769 H   0  0  0  1  0  1  0  0  0  0  0  0
  122.2191  103.2258  -53.5524 H   0  0  0  1  0  1  0  0  0  0  0  0
  121.3249  102.3305  -52.2797 H   0  0  0  1  0  1  0  0  0  0  0  0
  122.4771  101.4614  -53.3475 H   0  0  0  1  0  1  0  0  0  0  0  0
  124.8439  101.8566  -53.2244 H   0  0  0  1  0  1  0  0  0  0  0  0
  125.5686  102.8622  -51.9246 H   0  0  0  1  0  1  0  0  0  0  0  0
  124.6962  103.6459  -53.2842 H   0  0  0  1  0  1  0  0  0  0  0  0
  122.1176  103.9359  -50.6233 H   0  0  0  1  0  1  0  0  0  0  0  0
  123.1664  104.8370  -51.7699 H   0  0  0  1  0  1  0  0  0  0  0  0
  123.8708  104.1258  -50.2777 H   0  0  0  1  0  1  0  0  0  0  0  0
  1  7  1  0  0  0  0
  1 23  1  0  0  0  0
  1 34  1  0  0  0  0
  2 10  1  0  0  0  0
  2 11  1  0  0  0  0
  2 22  1  0  0  0  0
  2 35  1  0  0  0  0
  3 16  1  0  0  0  0
  3 17  1  0  0  0  0
  3 19  1  0  0  0  0
  3 40  1  0  0  0  0
  4  5  1  0  0  0  0
  4  9  2  0  0  0  0
  4 12  1  0  0  0  0
  5  6  3  0  0  0  0
  6  7  1  0  0  0  0
  7 32  1  0  0  0  0
  7 33  1  0  0  0  0
  8 10  1  0  0  0  0
  8 12  2  0  0  0  0
  8 14  1  0  0  0  0
  9 13  1  0  0  0  0
  9 37  1  0  0  0  0
 10 38  1  0  0  0  0
 10 39  1  0  0  0  0
 11 15  1  0  0  0  0
 11 41  1  0  0  0  0
 11 42  1  0  0  0  0
 12 43  1  0  0  0  0
 13 14  2  0  0  0  0
 13 31  1  0  0  0  0
 14 28  1  0  0  0  0
 15 16  1  0  0  0  0
 15 44  1  0  0  0  0
 15 45  1  0  0  0  0
 16 21  1  0  0  0  0
 16 46  1  0  0  0  0
 17 18  1  0  0  0  0
 17 47  1  0  0  0  0
 17 48  1  0  0  0  0
 18 49  1  0  0  0  0
 18 50  1  0  0  0  0
 18 51  1  0  0  0  0
 19 20  1  0  0  0  0
 19 52  1  0  0  0  0
 19 53  1  0  0  0  0
 20 54  1  0  0  0  0
 20 55  1  0  0  0  0
 20 56  1  0  0  0  0
 21 22  1  0  0  0  0
 21 57  1  0  0  0  0
 21 58  1  0  0  0  0
 22 59  1  0  0  0  0
 22 60  1  0  0  0  0
 23 29  1  0  0  0  0
 23 30  2  0  0  0  0
 24 25  1  0  0  0  0
 24 26  1  0  0  0  0
 24 27  1  0  0  0  0
 24 29  1  0  0  0  0
 25 61  1  0  0  0  0
 25 62  1  0  0  0  0
 25 63  1  0  0  0  0
 26 64  1  0  0  0  0
 26 65  1  0  0  0  0
 26 66  1  0  0  0  0
 27 67  1  0  0  0  0
 27 68  1  0  0  0  0
 27 69  1  0  0  0  0
 28 36  1  0  0  0  0
M  END
> <ConfScore>
-0.671157 

$$$$
4ago


 69 70  0  0  0  0  0  0  0  0999 V2000
  124.1149  100.5411  -49.3604 N   0  0  0  1  0  3  0  0  0  0  0  0
  123.9473  107.6542  -44.6758 N   0  3  0  1  0  4  0  0  0  0  0  0
  125.4511  111.5657  -43.7236 N   0  3  0  1  0  4  0  0  0  0  0  0
  124.4410  102.8420  -45.2570 C   0  0  0  1  0  3  0  0  0  0  0  0
  124.5030  101.8040  -46.2320 C   0  0  0  1  0  2  0  0  0  0  0  0
  124.5352  100.9709  -47.0882 C   0  0  0  1  0  2  0  0  0  0  0  0
  124.5792   99.9403  -48.1297 C   0  0  0  1  0  4  0  0  0  0  0  0
  123.8990  105.1710  -44.8720 C   0  0  0  1  0  3  0  0  0  0  0  0
  124.8080  102.6740  -43.9190 C   0  0  0  1  0  3  0  0  0  0  0  0
  123.4000  106.4840  -45.4060 C   0  0  0  1  0  4  0  0  0  0  0  0
  123.0125  108.8238  -44.7871 C   0  0  0  1  0  4  0  0  0  0  0  0
  124.0000  104.0880  -45.7400 C   0  0  0  1  0  3  0  0  0  0  0  0
  124.6970  103.7740  -43.0690 C   0  0  0  1  0  3  0  0  0  0  0  0
  124.2530  105.0330  -43.5070 C   0  0  0  1  0  3  0  0  0  0  0  0
  123.5615  109.9492  -43.9281 C   0  0  0  1  0  4  0  0  0  0  0  0
  124.9177  110.3425  -44.4929 C   0  0  0  1  0  4  0  0  0  0  0  0
  126.9649  111.7853  -43.8353 C   0  0  0  1  0  4  0  0  0  0  0  0
  127.3257  112.0098  -45.2922 C   0  0  0  1  0  4  0  0  0  0  0  0
  124.6729  112.8746  -43.7914 C   0  0  0  1  0  4  0  0  0  0  0  0
  123.1905  112.7515  -43.4594 C   0  0  0  1  0  4  0  0  0  0  0  0
  125.8871  109.1525  -44.3612 C   0  0  0  1  0  4  0  0  0  0  0  0
  125.3231  107.9915  -45.1576 C   0  0  0  1  0  4  0  0  0  0  0  0
  123.0143  100.0636  -50.0126 C   0  0  0  1  0  3  0  0  0  0  0  0
  121.6780  100.5841  -51.9979 C   0  0  0  1  0  4  0  0  0  0  0  0
  120.4637  100.8608  -51.1039 C   0  0  0  1  0  4  0  0  0  0  0  0
  121.5918   99.1268  -52.4707 C   0  0  0  1  0  4  0  0  0  0  0  0
  121.6838  101.5663  -53.1757 C   0  0  0  1  0  4  0  0  0  0  0  0
  124.1560  106.1120  -42.6860 O   0  0  0  1  0  2  0  0  0  0  0  0
  122.8165  100.8123  -51.1239 O   0  0  0  1  0  2  0  0  0  0  0  0
  122.3193   99.1472  -49.6003 O   0  0  0  1  0  1  0  0  0  0  0  0
  125.2210  103.5640  -41.0130 I   0  0  0  1  0  1  0  0  0  0  0  0
  123.9261   99.1002  -47.8533 H   0  0  0  1  0  1  0  0  0  0  0  0
  125.6094   99.5775  -48.2552 H   0  0  0  1  0  1  0  0  0  0  0  0
  124.6093  101.3218  -49.7422 H   0  0  0  1  0  1  0  0  0  0  0  0
  124.0165  107.4074  -43.7013 H   0  0  0  1  0  1  0  0  0  0  0  0
  124.4250  105.8660  -41.8080 H   0  0  0  1  0  1  0  0  0  0  0  0
  125.1680  101.7180  -43.5540 H   0  0  0  1  0  1  0  0  0  0  0  0
  122.3025  106.5011  -45.3250 H   0  0  0  1  0  1  0  0  0  0  0  0
  123.6904  106.5650  -46.4644 H   0  0  0  1  0  1  0  0  0  0  0  0
  125.3245  111.2840  -42.7651 H   0  0  0  1  0  1  0  0  0  0  0  0
  122.0122  108.5374  -44.4304 H   0  0  0  1  0  1  0  0  0  0  0  0
  122.9493  109.1523  -45.8350 H   0  0  0  1  0  1  0  0  0  0  0  0
  123.7390  104.2040  -46.7850 H   0  0  0  1  0  1  0  0  0  0  0  0
  123.6734  109.6065  -42.8888 H   0  0  0  1  0  1  0  0  0  0  0  0
  122.8779  110.8107  -43.9585 H   0  0  0  1  0  1  0  0  0  0  0  0
  124.8101  110.6027  -45.5568 H   0  0  0  1  0  1  0  0  0  0  0  0
  127.4955  110.8995  -43.4563 H   0  0  0  1  0  1  0  0  0  0  0  0
  127.2542  112.6672  -43.2441 H   0  0  0  1  0  1  0  0  0  0  0  0
  127.0501  111.1210  -45.8798 H   0  0  0  1  0  1  0  0  0  0  0  0
  128.4081  112.1861  -45.3791 H   0  0  0  1  0  1  0  0  0  0  0  0
  126.7794  112.8850  -45.6744 H   0  0  0  1  0  1  0  0  0  0  0  0
  124.7626  113.2735  -44.8135 H   0  0  0  1  0  1  0  0  0  0  0  0
  125.1267  113.5799  -43.0804 H   0  0  0  1  0  1  0  0  0  0  0  0
  123.0759  112.3483  -42.4422 H   0  0  0  1  0  1  0  0  0  0  0  0
  122.7095  112.0730  -44.1791 H   0  0  0  1  0  1  0  0  0  0  0  0
  122.7171  113.7426  -43.5168 H   0  0  0  1  0  1  0  0  0  0  0  0
  125.9842  108.8664  -43.3039 H   0  0  0  1  0  1  0  0  0  0  0  0
  126.8754  109.4315  -44.7568 H   0  0  0  1  0  1  0  0  0  0  0  0
  125.2779  108.2683  -46.2216 H   0  0  0  1  0  1  0  0  0  0  0  0
  125.9762  107.1152  -45.0340 H   0  0  0  1  0  1  0  0  0  0  0  0
  119.5409  100.7127  -51.6829 H   0  0  0  1  0  1  0  0  0  0  0  0
  120.5044  101.8970  -50.7396 H   0  0  0  1  0  1  0  0  0  0  0  0
  120.4736  100.1705  -50.2484 H   0  0  0  1  0  1  0  0  0  0  0  0
  121.4922   98.4639  -51.5986 H   0  0  0  1  0  1  0  0  0  0  0  0
  122.5052   98.8662  -53.0261 H   0  0  0  1  0  1  0  0  0  0  0  0
  120.7179   99.0052  -53.1264 H   0  0  0  1  0  1  0  0  0  0  0  0
  121.6171  102.5962  -52.7944 H   0  0  0  1  0  1  0  0  0  0  0  0
  120.8236  101.3606  -53.8289 H   0  0  0  1  0  1  0  0  0  0  0  0
  122.6165  101.4466  -53.7477 H   0  0  0  1  0  1  0  0  0  0  0  0
  1  7  1  0  0  0  0
  1 23  1  0  0  0  0
  1 34  1  0  0  0  0
  2 10  1  0  0  0  0
  2 11  1  0  0  0  0
  2 22  1  0  0  0  0
  2 35  1  0  0  0  0
  3 16  1  0  0  0  0
  3 17  1  0  0  0  0
  3 19  1  0  0  0  0
  3 40  1  0  0  0  0
  4  5  1  0  0  0  0
  4  9  2  0  0  0  0
  4 12  1  0  0  0  0
  5  6  3  0  0  0  0
  6  7  1  0  0  0  0
  7 32  1  0  0  0  0
  7 33  1  0  0  0  0
  8 10  1  0  0  0  0
  8 12  2  0  0  0  0
  8 14  1  0  0  0  0
  9 13  1  0  0  0  0
  9 37  1  0  0  0  0
 10 38  1  0  0  0  0
 10 39  1  0  0  0  0
 11 15  1  0  0  0  0
 11 41  1  0  0  0  0
 11 42  1  0  0  0  0
 12 43  1  0  0  0  0
 13 14  2  0  0  0  0
 13 31  1  0  0  0  0
 14 28  1  0  0  0  0
 15 16  1  0  0  0  0
 15 44  1  0  0  0  0
 15 45  1  0  0  0  0
 16 21  1  0  0  0  0
 16 46  1  0  0  0  0
 17 18  1  0  0  0  0
 17 47  1  0  0  0  0
 17 48  1  0  0  0  0
 18 49  1  0  0  0  0
 18 50  1  0  0  0  0
 18 51  1  0  0  0  0
 19 20  1  0  0  0  0
 19 52  1  0  0  0  0
 19 53  1  0  0  0  0
 20 54  1  0  0  0  0
 20 55  1  0  0  0  0
 20 56  1  0  0  0  0
 21 22  1  0  0  0  0
 21 57  1  0  0  0  0
 21 58  1  0  0  0  0
 22 59  1  0  0  0  0
 22 60  1  0  0  0  0
 23 29  1  0  0  0  0
 23 30  2  0  0  0  0
 24 25  1  0  0  0  0
 24 26  1  0  0  0  0
 24 27  1  0  0  0  0
 24 29  1  0  0  0  0
 25 61  1  0  0  0  0
 25 62  1  0  0  0  0
 25 63  1  0  0  0  0
 26 64  1  0  0  0  0
 26 65  1  0  0  0  0
 26 66  1  0  0  0  0
 27 67  1  0  0  0  0
 27 68  1  0  0  0  0
 27 69  1  0  0  0  0
 28 36  1  0  0  0  0
M  END
> <ConfScore>
-0.666768 

$$$$
4ago


 69 70  0  0  0  0  0  0  0  0999 V2000
  124.1149  100.5411  -49.3604 N   0  0  0  1  0  3  0  0  0  0  0  0
  123.9473  107.6542  -44.6758 N   0  3  0  1  0  4  0  0  0  0  0  0
  125.4511  111.5657  -43.7236 N   0  3  0  1  0  4  0  0  0  0  0  0
  124.4410  102.8420  -45.2570 C   0  0  0  1  0  3  0  0  0  0  0  0
  124.5030  101.8040  -46.2320 C   0  0  0  1  0  2  0  0  0  0  0  0
  124.5352  100.9709  -47.0882 C   0  0  0  1  0  2  0  0  0  0  0  0
  124.5792   99.9403  -48.1297 C   0  0  0  1  0  4  0  0  0  0  0  0
  123.8990  105.1710  -44.8720 C   0  0  0  1  0  3  0  0  0  0  0  0
  124.8080  102.6740  -43.9190 C   0  0  0  1  0  3  0  0  0  0  0  0
  123.4000  106.4840  -45.4060 C   0  0  0  1  0  4  0  0  0  0  0  0
  123.0125  108.8238  -44.7871 C   0  0  0  1  0  4  0  0  0  0  0  0
  124.0000  104.0880  -45.7400 C   0  0  0  1  0  3  0  0  0  0  0  0
  124.6970  103.7740  -43.0690 C   0  0  0  1  0  3  0  0  0  0  0  0
  124.2530  105.0330  -43.5070 C   0  0  0  1  0  3  0  0  0  0  0  0
  123.5615  109.9492  -43.9281 C   0  0  0  1  0  4  0  0  0  0  0  0
  124.9177  110.3425  -44.4929 C   0  0  0  1  0  4  0  0  0  0  0  0
  126.9649  111.7853  -43.8353 C   0  0  0  1  0  4  0  0  0  0  0  0
  127.3257  112.0098  -45.2922 C   0  0  0  1  0  4  0  0  0  0  0  0
  124.6729  112.8746  -43.7914 C   0  0  0  1  0  4  0  0  0  0  0  0
  123.1905  112.7515  -43.4594 C   0  0  0  1  0  4  0  0  0  0  0  0
  125.8871  109.1525  -44.3612 C   0  0  0  1  0  4  0  0  0  0  0  0
  125.3231  107.9915  -45.1576 C   0  0  0  1  0  4  0  0  0  0  0  0
  123.0143  100.0636  -50.0126 C   0  0  0  1  0  3  0  0  0  0  0  0
  121.6780  100.5841  -51.9979 C   0  0  0  1  0  4  0  0  0  0  0  0
  120.4637  100.8608  -51.1039 C   0  0  0  1  0  4  0  0  0  0  0  0
  121.5918   99.1268  -52.4707 C   0  0  0  1  0  4  0  0  0  0  0  0
  121.6838  101.5663  -53.1757 C   0  0  0  1  0  4  0  0  0  0  0  0
  124.1560  106.1120  -42.6860 O   0  0  0  1  0  2  0  0  0  0  0  0
  122.8165  100.8123  -51.1239 O   0  0  0  1  0  2  0  0  0  0  0  0
  122.3193   99.1472  -49.6003 O   0  0  0  1  0  1  0  0  0  0  0  0
  125.2210  103.5640  -41.0130 I   0  0  0  1  0  1  0  0  0  0  0  0
  123.9261   99.1002  -47.8533 H   0  0  0  1  0  1  0  0  0  0  0  0
  125.6094   99.5775  -48.2552 H   0  0  0  1  0  1  0  0  0  0  0  0
  124.6093  101.3218  -49.7422 H   0  0  0  1  0  1  0  0  0  0  0  0
  124.0165  107.4074  -43.7013 H   0  0  0  1  0  1  0  0  0  0  0  0
  124.4250  105.8660  -41.8080 H   0  0  0  1  0  1  0  0  0  0  0  0
  125.1680  101.7180  -43.5540 H   0  0  0  1  0  1  0  0  0  0  0  0
  122.3025  106.5011  -45.3250 H   0  0  0  1  0  1  0  0  0  0  0  0
  123.6904  106.5650  -46.4644 H   0  0  0  1  0  1  0  0  0  0  0  0
  125.3245  111.2840  -42.7651 H   0  0  0  1  0  1  0  0  0  0  0  0
  122.0122  108.5374  -44.4304 H   0  0  0  1  0  1  0  0  0  0  0  0
  122.9493  109.1523  -45.8350 H   0  0  0  1  0  1  0  0  0  0  0  0
  123.7390  104.2040  -46.7850 H   0  0  0  1  0  1  0  0  0  0  0  0
  123.6734  109.6065  -42.8888 H   0  0  0  1  0  1  0  0  0  0  0  0
  122.8779  110.8107  -43.9585 H   0  0  0  1  0  1  0  0  0  0  0  0
  124.8101  110.6027  -45.5568 H   0  0  0  1  0  1  0  0  0  0  0  0
  127.4955  110.8995  -43.4563 H   0  0  0  1  0  1  0  0  0  0  0  0
  127.2542  112.6672  -43.2441 H   0  0  0  1  0  1  0  0  0  0  0  0
  128.4085  112.1861  -45.3792 H   0  0  0  1  0  1  0  0  0  0  0  0
  126.7794  112.8847  -45.6748 H   0  0  0  1  0  1  0  0  0  0  0  0
  127.0514  111.1204  -45.8789 H   0  0  0  1  0  1  0  0  0  0  0  0
  124.7626  113.2735  -44.8135 H   0  0  0  1  0  1  0  0  0  0  0  0
  125.1267  113.5799  -43.0804 H   0  0  0  1  0  1  0  0  0  0  0  0
  123.0759  112.3483  -42.4422 H   0  0  0  1  0  1  0  0  0  0  0  0
  122.7095  112.0730  -44.1791 H   0  0  0  1  0  1  0  0  0  0  0  0
  122.7171  113.7426  -43.5168 H   0  0  0  1  0  1  0  0  0  0  0  0
  125.9842  108.8664  -43.3039 H   0  0  0  1  0  1  0  0  0  0  0  0
  126.8754  109.4315  -44.7568 H   0  0  0  1  0  1  0  0  0  0  0  0
  125.2779  108.2683  -46.2216 H   0  0  0  1  0  1  0  0  0  0  0  0
  125.9762  107.1152  -45.0340 H   0  0  0  1  0  1  0  0  0  0  0  0
  119.5409  100.7127  -51.6829 H   0  0  0  1  0  1  0  0  0  0  0  0
  120.5044  101.8970  -50.7396 H   0  0  0  1  0  1  0  0  0  0  0  0
  120.4736  100.1705  -50.2484 H   0  0  0  1  0  1  0  0  0  0  0  0
  121.4922   98.4639  -51.5986 H   0  0  0  1  0  1  0  0  0  0  0  0
  122.5052   98.8662  -53.0261 H   0  0  0  1  0  1  0  0  0  0  0  0
  120.7179   99.0052  -53.1264 H   0  0  0  1  0  1  0  0  0  0  0  0
  121.6171  102.5962  -52.7944 H   0  0  0  1  0  1  0  0  0  0  0  0
  120.8236  101.3606  -53.8289 H   0  0  0  1  0  1  0  0  0  0  0  0
  122.6165  101.4466  -53.7477 H   0  0  0  1  0  1  0  0  0  0  0  0
  1  7  1  0  0  0  0
  1 23  1  0  0  0  0
  1 34  1  0  0  0  0
  2 10  1  0  0  0  0
  2 11  1  0  0  0  0
  2 22  1  0  0  0  0
  2 35  1  0  0  0  0
  3 16  1  0  0  0  0
  3 17  1  0  0  0  0
  3 19  1  0  0  0  0
  3 40  1  0  0  0  0
  4  5  1  0  0  0  0
  4  9  2  0  0  0  0
  4 12  1  0  0  0  0
  5  6  3  0  0  0  0
  6  7  1  0  0  0  0
  7 32  1  0  0  0  0
  7 33  1  0  0  0  0
  8 10  1  0  0  0  0
  8 12  2  0  0  0  0
  8 14  1  0  0  0  0
  9 13  1  0  0  0  0
  9 37  1  0  0  0  0
 10 38  1  0  0  0  0
 10 39  1  0  0  0  0
 11 15  1  0  0  0  0
 11 41  1  0  0  0  0
 11 42  1  0  0  0  0
 12 43  1  0  0  0  0
 13 14  2  0  0  0  0
 13 31  1  0  0  0  0
 14 28  1  0  0  0  0
 15 16  1  0  0  0  0
 15 44  1  0  0  0  0
 15 45  1  0  0  0  0
 16 21  1  0  0  0  0
 16 46  1  0  0  0  0
 17 18  1  0  0  0  0
 17 47  1  0  0  0  0
 17 48  1  0  0  0  0
 18 49  1  0  0  0  0
 18 50  1  0  0  0  0
 18 51  1  0  0  0  0
 19 20  1  0  0  0  0
 19 52  1  0  0  0  0
 19 53  1  0  0  0  0
 20 54  1  0  0  0  0
 20 55  1  0  0  0  0
 20 56  1  0  0  0  0
 21 22  1  0  0  0  0
 21 57  1  0  0  0  0
 21 58  1  0  0  0  0
 22 59  1  0  0  0  0
 22 60  1  0  0  0  0
 23 29  1  0  0  0  0
 23 30  2  0  0  0  0
 24 25  1  0  0  0  0
 24 26  1  0  0  0  0
 24 27  1  0  0  0  0
 24 29  1  0  0  0  0
 25 61  1  0  0  0  0
 25 62  1  0  0  0  0
 25 63  1  0  0  0  0
 26 64  1  0  0  0  0
 26 65  1  0  0  0  0
 26 66  1  0  0  0  0
 27 67  1  0  0  0  0
 27 68  1  0  0  0  0
 27 69  1  0  0  0  0
 28 36  1  0  0  0  0
M  END
> <ConfScore>
-0.666768 

$$$$
4ago


 69 70  0  0  0  0  0  0  0  0999 V2000
   91.1554   91.2821  -49.2504 N   0  0  0  1  0  3  0  0  0  0  0  0
   90.3683   98.3703  -44.5750 N   0  3  0  1  0  4  0  0  0  0  0  0
   92.2965  102.1278  -43.7275 N   0  3  0  1  0  4  0  0  0  0  0  0
   91.2337   93.6144  -45.1525 C   0  0  0  1  0  3  0  0  0  0  0  0
   91.3933   92.5817  -46.1220 C   0  0  0  1  0  2  0  0  0  0  0  0
   91.5051   91.7512  -46.9740 C   0  0  0  1  0  2  0  0  0  0  0  0
   91.6473   90.7242  -48.0102 C   0  0  0  1  0  4  0  0  0  0  0  0
   90.5014   95.8938  -44.7858 C   0  0  0  1  0  3  0  0  0  0  0  0
   91.5924   93.4805  -43.8084 C   0  0  0  1  0  3  0  0  0  0  0  0
   89.9050   97.1660  -45.3350 C   0  0  0  1  0  4  0  0  0  0  0  0
   89.7773   99.6388  -45.1311 C   0  0  0  1  0  4  0  0  0  0  0  0
   90.7019   94.8197  -45.6475 C   0  0  0  1  0  3  0  0  0  0  0  0
   91.3808   94.5707  -42.9650 C   0  0  0  1  0  3  0  0  0  0  0  0
   90.8444   95.7888  -43.4150 C   0  0  0  1  0  3  0  0  0  0  0  0
   90.2381  100.8197  -44.2908 C   0  0  0  1  0  4  0  0  0  0  0  0
   91.7591  100.8630  -44.4231 C   0  0  0  1  0  4  0  0  0  0  0  0
   93.7191  102.5305  -44.1355 C   0  0  0  1  0  4  0  0  0  0  0  0
   94.2045  103.6333  -43.2127 C   0  0  0  1  0  4  0  0  0  0  0  0
   91.3765  103.3342  -43.5803 C   0  0  0  1  0  4  0  0  0  0  0  0
   91.1911  104.1522  -44.8528 C   0  0  0  1  0  4  0  0  0  0  0  0
   92.3754   99.6202  -43.7663 C   0  0  0  1  0  4  0  0  0  0  0  0
   91.8687   98.4061  -44.5276 C   0  0  0  1  0  4  0  0  0  0  0  0
   91.7675   92.3507  -49.8405 C   0  0  0  1  0  3  0  0  0  0  0  0
   91.5486   93.7151  -51.8624 C   0  0  0  1  0  4  0  0  0  0  0  0
   93.0135   93.3628  -52.1457 C   0  0  0  1  0  4  0  0  0  0  0  0
   91.5186   95.0904  -51.1825 C   0  0  0  1  0  4  0  0  0  0  0  0
   90.7555   93.7106  -53.1750 C   0  0  0  1  0  4  0  0  0  0  0  0
   90.6489   96.8591  -42.6002 O   0  0  0  1  0  2  0  0  0  0  0  0
   91.0972   92.6542  -50.9776 O   0  0  0  1  0  2  0  0  0  0  0  0
   92.7811   92.8809  -49.4110 O   0  0  0  1  0  1  0  0  0  0  0  0
   91.8884   94.4097  -40.9004 I   0  0  0  1  0  1  0  0  0  0  0  0
   91.0592   89.8353  -47.7401 H   0  0  0  1  0  1  0  0  0  0  0  0
   92.7050   90.4445  -48.1187 H   0  0  0  1  0  1  0  0  0  0  0  0
   90.3510   90.8778  -49.6852 H   0  0  0  1  0  1  0  0  0  0  0  0
   90.0347   98.3007  -43.6266 H   0  0  0  1  0  1  0  0  0  0  0  0
   90.9232   96.6382  -41.7172 H   0  0  0  1  0  1  0  0  0  0  0  0
   92.0220   92.5575  -43.4340 H   0  0  0  1  0  1  0  0  0  0  0  0
   90.2035   97.2734  -46.3890 H   0  0  0  1  0  1  0  0  0  0  0  0
   88.8083   97.1030  -45.2684 H   0  0  0  1  0  1  0  0  0  0  0  0
   92.4042  101.8159  -42.7761 H   0  0  0  1  0  1  0  0  0  0  0  0
   88.6795   99.5751  -45.1039 H   0  0  0  1  0  1  0  0  0  0  0  0
   90.1117   99.7749  -46.1702 H   0  0  0  1  0  1  0  0  0  0  0  0
   90.4485   94.9112  -46.6968 H   0  0  0  1  0  1  0  0  0  0  0  0
   89.9501  100.6757  -43.2389 H   0  0  0  1  0  1  0  0  0  0  0  0
   89.7951  101.7533  -44.6684 H   0  0  0  1  0  1  0  0  0  0  0  0
   92.0322  100.8858  -45.4890 H   0  0  0  1  0  1  0  0  0  0  0  0
   93.7169  102.8930  -45.1739 H   0  0  0  1  0  1  0  0  0  0  0  0
   94.3870  101.6599  -44.0521 H   0  0  0  1  0  1  0  0  0  0  0  0
   93.5447  104.5089  -43.3085 H   0  0  0  1  0  1  0  0  0  0  0  0
   95.2316  103.9158  -43.4873 H   0  0  0  1  0  1  0  0  0  0  0  0
   94.1880  103.2747  -42.1727 H   0  0  0  1  0  1  0  0  0  0  0  0
   91.7992  103.9946  -42.8076 H   0  0  0  1  0  1  0  0  0  0  0  0
   90.3893  102.9743  -43.2564 H   0  0  0  1  0  1  0  0  0  0  0  0
   90.7741  103.5099  -45.6428 H   0  0  0  1  0  1  0  0  0  0  0  0
   92.1641  104.5484  -45.1780 H   0  0  0  1  0  1  0  0  0  0  0  0
   90.5022  104.9867  -44.6566 H   0  0  0  1  0  1  0  0  0  0  0  0
   92.0660   99.5593  -42.7129 H   0  0  0  1  0  1  0  0  0  0  0  0
   93.4733   99.6694  -43.8245 H   0  0  0  1  0  1  0  0  0  0  0  0
   92.2576   98.4419  -45.5564 H   0  0  0  1  0  1  0  0  0  0  0  0
   92.2318   97.4954  -44.0294 H   0  0  0  1  0  1  0  0  0  0  0  0
   93.4524   94.1240  -52.8064 H   0  0  0  1  0  1  0  0  0  0  0  0
   93.0668   92.3798  -52.6346 H   0  0  0  1  0  1  0  0  0  0  0  0
   93.5727   93.3329  -51.1998 H   0  0  0  1  0  1  0  0  0  0  0  0
   92.1756   95.0775  -50.3003 H   0  0  0  1  0  1  0  0  0  0  0  0
   90.4897   95.3229  -50.8691 H   0  0  0  1  0  1  0  0  0  0  0  0
   91.8674   95.8566  -51.8894 H   0  0  0  1  0  1  0  0  0  0  0  0
   90.9074   92.7511  -53.6917 H   0  0  0  1  0  1  0  0  0  0  0  0
   91.1046   94.5321  -53.8171 H   0  0  0  1  0  1  0  0  0  0  0  0
   89.6851   93.8442  -52.9566 H   0  0  0  1  0  1  0  0  0  0  0  0
  1  7  1  0  0  0  0
  1 23  1  0  0  0  0
  1 34  1  0  0  0  0
  2 10  1  0  0  0  0
  2 11  1  0  0  0  0
  2 22  1  0  0  0  0
  2 35  1  0  0  0  0
  3 16  1  0  0  0  0
  3 17  1  0  0  0  0
  3 19  1  0  0  0  0
  3 40  1  0  0  0  0
  4  5  1  0  0  0  0
  4  9  2  0  0  0  0
  4 12  1  0  0  0  0
  5  6  3  0  0  0  0
  6  7  1  0  0  0  0
  7 32  1  0  0  0  0
  7 33  1  0  0  0  0
  8 10  1  0  0  0  0
  8 12  2  0  0  0  0
  8 14  1  0  0  0  0
  9 13  1  0  0  0  0
  9 37  1  0  0  0  0
 10 38  1  0  0  0  0
 10 39  1  0  0  0  0
 11 15  1  0  0  0  0
 11 41  1  0  0  0  0
 11 42  1  0  0  0  0
 12 43  1  0  0  0  0
 13 14  2  0  0  0  0
 13 31  1  0  0  0  0
 14 28  1  0  0  0  0
 15 16  1  0  0  0  0
 15 44  1  0  0  0  0
 15 45  1  0  0  0  0
 16 21  1  0  0  0  0
 16 46  1  0  0  0  0
 17 18  1  0  0  0  0
 17 47  1  0  0  0  0
 17 48  1  0  0  0  0
 18 49  1  0  0  0  0
 18 50  1  0  0  0  0
 18 51  1  0  0  0  0
 19 20  1  0  0  0  0
 19 52  1  0  0  0  0
 19 53  1  0  0  0  0
 20 54  1  0  0  0  0
 20 55  1  0  0  0  0
 20 56  1  0  0  0  0
 21 22  1  0  0  0  0
 21 57  1  0  0  0  0
 21 58  1  0  0  0  0
 22 59  1  0  0  0  0
 22 60  1  0  0  0  0
 23 29  1  0  0  0  0
 23 30  2  0  0  0  0
 24 25  1  0  0  0  0
 24 26  1  0  0  0  0
 24 27  1  0  0  0  0
 24 29  1  0  0  0  0
 25 61  1  0  0  0  0
 25 62  1  0  0  0  0
 25 63  1  0  0  0  0
 26 64  1  0  0  0  0
 26 65  1  0  0  0  0
 26 66  1  0  0  0  0
 27 67  1  0  0  0  0
 27 68  1  0  0  0  0
 27 69  1  0  0  0  0
 28 36  1  0  0  0  0
M  END
> <ConfScore>
-0.666451 

$$$$
4ago


 69 70  0  0  0  0  0  0  0  0999 V2000
   91.1554   91.2821  -49.2504 N   0  0  0  1  0  3  0  0  0  0  0  0
   90.3683   98.3703  -44.5750 N   0  3  0  1  0  4  0  0  0  0  0  0
   92.2965  102.1278  -43.7275 N   0  3  0  1  0  4  0  0  0  0  0  0
   91.2337   93.6144  -45.1525 C   0  0  0  1  0  3  0  0  0  0  0  0
   91.3933   92.5817  -46.1220 C   0  0  0  1  0  2  0  0  0  0  0  0
   91.5051   91.7512  -46.9740 C   0  0  0  1  0  2  0  0  0  0  0  0
   91.6473   90.7242  -48.0102 C   0  0  0  1  0  4  0  0  0  0  0  0
   90.5014   95.8938  -44.7858 C   0  0  0  1  0  3  0  0  0  0  0  0
   91.5924   93.4805  -43.8084 C   0  0  0  1  0  3  0  0  0  0  0  0
   89.9050   97.1660  -45.3350 C   0  0  0  1  0  4  0  0  0  0  0  0
   89.7773   99.6388  -45.1311 C   0  0  0  1  0  4  0  0  0  0  0  0
   90.7019   94.8197  -45.6475 C   0  0  0  1  0  3  0  0  0  0  0  0
   91.3808   94.5707  -42.9650 C   0  0  0  1  0  3  0  0  0  0  0  0
   90.8444   95.7888  -43.4150 C   0  0  0  1  0  3  0  0  0  0  0  0
   90.2381  100.8197  -44.2908 C   0  0  0  1  0  4  0  0  0  0  0  0
   91.7591  100.8630  -44.4231 C   0  0  0  1  0  4  0  0  0  0  0  0
   93.7191  102.5305  -44.1355 C   0  0  0  1  0  4  0  0  0  0  0  0
   94.2045  103.6333  -43.2127 C   0  0  0  1  0  4  0  0  0  0  0  0
   91.3765  103.3342  -43.5803 C   0  0  0  1  0  4  0  0  0  0  0  0
   91.1911  104.1522  -44.8528 C   0  0  0  1  0  4  0  0  0  0  0  0
   92.3754   99.6202  -43.7663 C   0  0  0  1  0  4  0  0  0  0  0  0
   91.8687   98.4061  -44.5276 C   0  0  0  1  0  4  0  0  0  0  0  0
   91.7675   92.3507  -49.8405 C   0  0  0  1  0  3  0  0  0  0  0  0
   91.5486   93.7151  -51.8624 C   0  0  0  1  0  4  0  0  0  0  0  0
   93.0135   93.3628  -52.1457 C   0  0  0  1  0  4  0  0  0  0  0  0
   91.5186   95.0904  -51.1825 C   0  0  0  1  0  4  0  0  0  0  0  0
   90.7555   93.7106  -53.1750 C   0  0  0  1  0  4  0  0  0  0  0  0
   90.6489   96.8591  -42.6002 O   0  0  0  1  0  2  0  0  0  0  0  0
   91.0972   92.6542  -50.9776 O   0  0  0  1  0  2  0  0  0  0  0  0
   92.7811   92.8809  -49.4110 O   0  0  0  1  0  1  0  0  0  0  0  0
   91.8884   94.4097  -40.9004 I   0  0  0  1  0  1  0  0  0  0  0  0
   91.0592   89.8353  -47.7401 H   0  0  0  1  0  1  0  0  0  0  0  0
   92.7050   90.4445  -48.1187 H   0  0  0  1  0  1  0  0  0  0  0  0
   90.3510   90.8778  -49.6852 H   0  0  0  1  0  1  0  0  0  0  0  0
   90.0347   98.3007  -43.6266 H   0  0  0  1  0  1  0  0  0  0  0  0
   90.9232   96.6382  -41.7172 H   0  0  0  1  0  1  0  0  0  0  0  0
   92.0220   92.5575  -43.4340 H   0  0  0  1  0  1  0  0  0  0  0  0
   90.2035   97.2734  -46.3890 H   0  0  0  1  0  1  0  0  0  0  0  0
   88.8083   97.1030  -45.2684 H   0  0  0  1  0  1  0  0  0  0  0  0
   92.4042  101.8159  -42.7761 H   0  0  0  1  0  1  0  0  0  0  0  0
   88.6795   99.5751  -45.1039 H   0  0  0  1  0  1  0  0  0  0  0  0
   90.1117   99.7749  -46.1702 H   0  0  0  1  0  1  0  0  0  0  0  0
   90.4485   94.9112  -46.6968 H   0  0  0  1  0  1  0  0  0  0  0  0
   89.9501  100.6757  -43.2389 H   0  0  0  1  0  1  0  0  0  0  0  0
   89.7951  101.7533  -44.6684 H   0  0  0  1  0  1  0  0  0  0  0  0
   92.0322  100.8858  -45.4890 H   0  0  0  1  0  1  0  0  0  0  0  0
   93.7169  102.8930  -45.1739 H   0  0  0  1  0  1  0  0  0  0  0  0
   94.3870  101.6599  -44.0521 H   0  0  0  1  0  1  0  0  0  0  0  0
   94.1885  103.2749  -42.1723 H   0  0  0  1  0  1  0  0  0  0  0  0
   93.5457  104.5090  -43.3094 H   0  0  0  1  0  1  0  0  0  0  0  0
   95.2320  103.9149  -43.4870 H   0  0  0  1  0  1  0  0  0  0  0  0
   91.7992  103.9946  -42.8076 H   0  0  0  1  0  1  0  0  0  0  0  0
   90.3893  102.9743  -43.2564 H   0  0  0  1  0  1  0  0  0  0  0  0
   90.7741  103.5099  -45.6428 H   0  0  0  1  0  1  0  0  0  0  0  0
   92.1641  104.5484  -45.1780 H   0  0  0  1  0  1  0  0  0  0  0  0
   90.5022  104.9867  -44.6566 H   0  0  0  1  0  1  0  0  0  0  0  0
   92.0660   99.5593  -42.7129 H   0  0  0  1  0  1  0  0  0  0  0  0
   93.4733   99.6694  -43.8245 H   0  0  0  1  0  1  0  0  0  0  0  0
   92.2576   98.4419  -45.5564 H   0  0  0  1  0  1  0  0  0  0  0  0
   92.2318   97.4954  -44.0294 H   0  0  0  1  0  1  0  0  0  0  0  0
   93.4524   94.1240  -52.8064 H   0  0  0  1  0  1  0  0  0  0  0  0
   93.0668   92.3798  -52.6346 H   0  0  0  1  0  1  0  0  0  0  0  0
   93.5727   93.3329  -51.1998 H   0  0  0  1  0  1  0  0  0  0  0  0
   92.1756   95.0775  -50.3003 H   0  0  0  1  0  1  0  0  0  0  0  0
   90.4897   95.3229  -50.8691 H   0  0  0  1  0  1  0  0  0  0  0  0
   91.8674   95.8566  -51.8894 H   0  0  0  1  0  1  0  0  0  0  0  0
   90.9074   92.7511  -53.6917 H   0  0  0  1  0  1  0  0  0  0  0  0
   91.1046   94.5321  -53.8171 H   0  0  0  1  0  1  0  0  0  0  0  0
   89.6851   93.8442  -52.9566 H   0  0  0  1  0  1  0  0  0  0  0  0
  1  7  1  0  0  0  0
  1 23  1  0  0  0  0
  1 34  1  0  0  0  0
  2 10  1  0  0  0  0
  2 11  1  0  0  0  0
  2 22  1  0  0  0  0
  2 35  1  0  0  0  0
  3 16  1  0  0  0  0
  3 17  1  0  0  0  0
  3 19  1  0  0  0  0
  3 40  1  0  0  0  0
  4  5  1  0  0  0  0
  4  9  2  0  0  0  0
  4 12  1  0  0  0  0
  5  6  3  0  0  0  0
  6  7  1  0  0  0  0
  7 32  1  0  0  0  0
  7 33  1  0  0  0  0
  8 10  1  0  0  0  0
  8 12  2  0  0  0  0
  8 14  1  0  0  0  0
  9 13  1  0  0  0  0
  9 37  1  0  0  0  0
 10 38  1  0  0  0  0
 10 39  1  0  0  0  0
 11 15  1  0  0  0  0
 11 41  1  0  0  0  0
 11 42  1  0  0  0  0
 12 43  1  0  0  0  0
 13 14  2  0  0  0  0
 13 31  1  0  0  0  0
 14 28  1  0  0  0  0
 15 16  1  0  0  0  0
 15 44  1  0  0  0  0
 15 45  1  0  0  0  0
 16 21  1  0  0  0  0
 16 46  1  0  0  0  0
 17 18  1  0  0  0  0
 17 47  1  0  0  0  0
 17 48  1  0  0  0  0
 18 49  1  0  0  0  0
 18 50  1  0  0  0  0
 18 51  1  0  0  0  0
 19 20  1  0  0  0  0
 19 52  1  0  0  0  0
 19 53  1  0  0  0  0
 20 54  1  0  0  0  0
 20 55  1  0  0  0  0
 20 56  1  0  0  0  0
 21 22  1  0  0  0  0
 21 57  1  0  0  0  0
 21 58  1  0  0  0  0
 22 59  1  0  0  0  0
 22 60  1  0  0  0  0
 23 29  1  0  0  0  0
 23 30  2  0  0  0  0
 24 25  1  0  0  0  0
 24 26  1  0  0  0  0
 24 27  1  0  0  0  0
 24 29  1  0  0  0  0
 25 61  1  0  0  0  0
 25 62  1  0  0  0  0
 25 63  1  0  0  0  0
 26 64  1  0  0  0  0
 26 65  1  0  0  0  0
 26 66  1  0  0  0  0
 27 67  1  0  0  0  0
 27 68  1  0  0  0  0
 27 69  1  0  0  0  0
 28 36  1  0  0  0  0
M  END
> <ConfScore>
-0.666451 

$$$$
4ago


 69 70  0  0  0  0  0  0  0  0999 V2000
  124.1149  100.5411  -49.3604 N   0  0  0  1  0  3  0  0  0  0  0  0
  123.9473  107.6542  -44.6758 N   0  3  0  1  0  4  0  0  0  0  0  0
  125.4511  111.5657  -43.7236 N   0  3  0  1  0  4  0  0  0  0  0  0
  124.4410  102.8420  -45.2570 C   0  0  0  1  0  3  0  0  0  0  0  0
  124.5030  101.8040  -46.2320 C   0  0  0  1  0  2  0  0  0  0  0  0
  124.5352  100.9709  -47.0882 C   0  0  0  1  0  2  0  0  0  0  0  0
  124.5792   99.9403  -48.1297 C   0  0  0  1  0  4  0  0  0  0  0  0
  123.8990  105.1710  -44.8720 C   0  0  0  1  0  3  0  0  0  0  0  0
  124.8080  102.6740  -43.9190 C   0  0  0  1  0  3  0  0  0  0  0  0
  123.4000  106.4840  -45.4060 C   0  0  0  1  0  4  0  0  0  0  0  0
  123.0125  108.8238  -44.7871 C   0  0  0  1  0  4  0  0  0  0  0  0
  124.0000  104.0880  -45.7400 C   0  0  0  1  0  3  0  0  0  0  0  0
  124.6970  103.7740  -43.0690 C   0  0  0  1  0  3  0  0  0  0  0  0
  124.2530  105.0330  -43.5070 C   0  0  0  1  0  3  0  0  0  0  0  0
  123.5615  109.9492  -43.9281 C   0  0  0  1  0  4  0  0  0  0  0  0
  124.9177  110.3425  -44.4929 C   0  0  0  1  0  4  0  0  0  0  0  0
  126.9649  111.7853  -43.8353 C   0  0  0  1  0  4  0  0  0  0  0  0
  127.6782  110.4855  -43.5114 C   0  0  0  1  0  4  0  0  0  0  0  0
  124.6729  112.8746  -43.7914 C   0  0  0  1  0  4  0  0  0  0  0  0
  123.1905  112.7515  -43.4594 C   0  0  0  1  0  4  0  0  0  0  0  0
  125.8871  109.1525  -44.3612 C   0  0  0  1  0  4  0  0  0  0  0  0
  125.3231  107.9915  -45.1576 C   0  0  0  1  0  4  0  0  0  0  0  0
  124.0181   99.8148  -50.5128 C   0  0  0  1  0  3  0  0  0  0  0  0
  123.2936  100.1247  -52.8316 C   0  0  0  1  0  4  0  0  0  0  0  0
  122.1879   99.0838  -52.6217 C   0  0  0  1  0  4  0  0  0  0  0  0
  124.5080   99.4061  -53.4345 C   0  0  0  1  0  4  0  0  0  0  0  0
  122.7802  101.2428  -53.7472 C   0  0  0  1  0  4  0  0  0  0  0  0
  124.1560  106.1120  -42.6860 O   0  0  0  1  0  2  0  0  0  0  0  0
  123.5602  100.6279  -51.4944 O   0  0  0  1  0  2  0  0  0  0  0  0
  124.2610   98.6198  -50.5902 O   0  0  0  1  0  1  0  0  0  0  0  0
  125.2210  103.5640  -41.0130 I   0  0  0  1  0  1  0  0  0  0  0  0
  123.9261   99.1002  -47.8533 H   0  0  0  1  0  1  0  0  0  0  0  0
  125.6094   99.5775  -48.2552 H   0  0  0  1  0  1  0  0  0  0  0  0
  123.8596  101.5077  -49.3686 H   0  0  0  1  0  1  0  0  0  0  0  0
  124.0165  107.4074  -43.7013 H   0  0  0  1  0  1  0  0  0  0  0  0
  124.4250  105.8660  -41.8080 H   0  0  0  1  0  1  0  0  0  0  0  0
  125.1680  101.7180  -43.5540 H   0  0  0  1  0  1  0  0  0  0  0  0
  122.3025  106.5011  -45.3250 H   0  0  0  1  0  1  0  0  0  0  0  0
  123.6904  106.5650  -46.4644 H   0  0  0  1  0  1  0  0  0  0  0  0
  125.3245  111.2840  -42.7651 H   0  0  0  1  0  1  0  0  0  0  0  0
  122.0122  108.5374  -44.4304 H   0  0  0  1  0  1  0  0  0  0  0  0
  122.9493  109.1523  -45.8350 H   0  0  0  1  0  1  0  0  0  0  0  0
  123.7390  104.2040  -46.7850 H   0  0  0  1  0  1  0  0  0  0  0  0
  123.6734  109.6065  -42.8888 H   0  0  0  1  0  1  0  0  0  0  0  0
  122.8779  110.8107  -43.9585 H   0  0  0  1  0  1  0  0  0  0  0  0
  124.8101  110.6027  -45.5568 H   0  0  0  1  0  1  0  0  0  0  0  0
  127.2784  112.5647  -43.1253 H   0  0  0  1  0  1  0  0  0  0  0  0
  127.2175  112.0988  -44.8595 H   0  0  0  1  0  1  0  0  0  0  0  0
  127.4371  110.1812  -42.4817 H   0  0  0  1  0  1  0  0  0  0  0  0
  128.7646  110.6296  -43.6067 H   0  0  0  1  0  1  0  0  0  0  0  0
  127.3490  109.7027  -44.2109 H   0  0  0  1  0  1  0  0  0  0  0  0
  124.7626  113.2735  -44.8135 H   0  0  0  1  0  1  0  0  0  0  0  0
  125.1267  113.5799  -43.0804 H   0  0  0  1  0  1  0  0  0  0  0  0
  123.0759  112.3483  -42.4422 H   0  0  0  1  0  1  0  0  0  0  0  0
  122.7095  112.0730  -44.1791 H   0  0  0  1  0  1  0  0  0  0  0  0
  122.7171  113.7426  -43.5168 H   0  0  0  1  0  1  0  0  0  0  0  0
  125.9842  108.8664  -43.3039 H   0  0  0  1  0  1  0  0  0  0  0  0
  126.8754  109.4315  -44.7568 H   0  0  0  1  0  1  0  0  0  0  0  0
  125.2779  108.2683  -46.2216 H   0  0  0  1  0  1  0  0  0  0  0  0
  125.9762  107.1152  -45.0340 H   0  0  0  1  0  1  0  0  0  0  0  0
  121.9135   98.6402  -53.5895 H   0  0  0  1  0  1  0  0  0  0  0  0
  121.3064   99.5685  -52.1788 H   0  0  0  1  0  1  0  0  0  0  0  0
  122.5504   98.2949  -51.9473 H   0  0  0  1  0  1  0  0  0  0  0  0
  124.7832   98.5534  -52.7963 H   0  0  0  1  0  1  0  0  0  0  0  0
  125.3553  100.1053  -53.4964 H   0  0  0  1  0  1  0  0  0  0  0  0
  124.2574   99.0452  -54.4421 H   0  0  0  1  0  1  0  0  0  0  0  0
  121.8392  101.6447  -53.3427 H   0  0  0  1  0  1  0  0  0  0  0  0
  122.6035  100.8394  -54.7547 H   0  0  0  1  0  1  0  0  0  0  0  0
  123.5301  102.0466  -53.7994 H   0  0  0  1  0  1  0  0  0  0  0  0
  1  7  1  0  0  0  0
  1 23  1  0  0  0  0
  1 34  1  0  0  0  0
  2 10  1  0  0  0  0
  2 11  1  0  0  0  0
  2 22  1  0  0  0  0
  2 35  1  0  0  0  0
  3 16  1  0  0  0  0
  3 17  1  0  0  0  0
  3 19  1  0  0  0  0
  3 40  1  0  0  0  0
  4  5  1  0  0  0  0
  4  9  2  0  0  0  0
  4 12  1  0  0  0  0
  5  6  3  0  0  0  0
  6  7  1  0  0  0  0
  7 32  1  0  0  0  0
  7 33  1  0  0  0  0
  8 10  1  0  0  0  0
  8 12  2  0  0  0  0
  8 14  1  0  0  0  0
  9 13  1  0  0  0  0
  9 37  1  0  0  0  0
 10 38  1  0  0  0  0
 10 39  1  0  0  0  0
 11 15  1  0  0  0  0
 11 41  1  0  0  0  0
 11 42  1  0  0  0  0
 12 43  1  0  0  0  0
 13 14  2  0  0  0  0
 13 31  1  0  0  0  0
 14 28  1  0  0  0  0
 15 16  1  0  0  0  0
 15 44  1  0  0  0  0
 15 45  1  0  0  0  0
 16 21  1  0  0  0  0
 16 46  1  0  0  0  0
 17 18  1  0  0  0  0
 17 47  1  0  0  0  0
 17 48  1  0  0  0  0
 18 49  1  0  0  0  0
 18 50  1  0  0  0  0
 18 51  1  0  0  0  0
 19 20  1  0  0  0  0
 19 52  1  0  0  0  0
 19 53  1  0  0  0  0
 20 54  1  0  0  0  0
 20 55  1  0  0  0  0
 20 56  1  0  0  0  0
 21 22  1  0  0  0  0
 21 57  1  0  0  0  0
 21 58  1  0  0  0  0
 22 59  1  0  0  0  0
 22 60  1  0  0  0  0
 23 29  1  0  0  0  0
 23 30  2  0  0  0  0
 24 25  1  0  0  0  0
 24 26  1  0  0  0  0
 24 27  1  0  0  0  0
 24 29  1  0  0  0  0
 25 61  1  0  0  0  0
 25 62  1  0  0  0  0
 25 63  1  0  0  0  0
 26 64  1  0  0  0  0
 26 65  1  0  0  0  0
 26 66  1  0  0  0  0
 27 67  1  0  0  0  0
 27 68  1  0  0  0  0
 27 69  1  0  0  0  0
 28 36  1  0  0  0  0
M  END
> <ConfScore>
-0.660278 

$$$$
4ago


 69 70  0  0  0  0  0  0  0  0999 V2000
  124.1149  100.5411  -49.3604 N   0  0  0  1  0  3  0  0  0  0  0  0
  123.9473  107.6542  -44.6758 N   0  3  0  1  0  4  0  0  0  0  0  0
  125.4511  111.5657  -43.7236 N   0  3  0  1  0  4  0  0  0  0  0  0
  124.4410  102.8420  -45.2570 C   0  0  0  1  0  3  0  0  0  0  0  0
  124.5030  101.8040  -46.2320 C   0  0  0  1  0  2  0  0  0  0  0  0
  124.5352  100.9709  -47.0882 C   0  0  0  1  0  2  0  0  0  0  0  0
  124.5792   99.9403  -48.1297 C   0  0  0  1  0  4  0  0  0  0  0  0
  123.8990  105.1710  -44.8720 C   0  0  0  1  0  3  0  0  0  0  0  0
  124.8080  102.6740  -43.9190 C   0  0  0  1  0  3  0  0  0  0  0  0
  123.4000  106.4840  -45.4060 C   0  0  0  1  0  4  0  0  0  0  0  0
  123.0125  108.8238  -44.7871 C   0  0  0  1  0  4  0  0  0  0  0  0
  124.0000  104.0880  -45.7400 C   0  0  0  1  0  3  0  0  0  0  0  0
  124.6970  103.7740  -43.0690 C   0  0  0  1  0  3  0  0  0  0  0  0
  124.2530  105.0330  -43.5070 C   0  0  0  1  0  3  0  0  0  0  0  0
  123.5615  109.9492  -43.9281 C   0  0  0  1  0  4  0  0  0  0  0  0
  124.9177  110.3425  -44.4929 C   0  0  0  1  0  4  0  0  0  0  0  0
  126.9649  111.7853  -43.8353 C   0  0  0  1  0  4  0  0  0  0  0  0
  127.2983  112.2196  -45.2507 C   0  0  0  1  0  4  0  0  0  0  0  0
  124.6729  112.8746  -43.7914 C   0  0  0  1  0  4  0  0  0  0  0  0
  123.1905  112.7515  -43.4594 C   0  0  0  1  0  4  0  0  0  0  0  0
  125.8871  109.1525  -44.3612 C   0  0  0  1  0  4  0  0  0  0  0  0
  125.3231  107.9915  -45.1576 C   0  0  0  1  0  4  0  0  0  0  0  0
  124.0181   99.8148  -50.5128 C   0  0  0  1  0  3  0  0  0  0  0  0
  123.2936  100.1247  -52.8316 C   0  0  0  1  0  4  0  0  0  0  0  0
  122.1879   99.0838  -52.6217 C   0  0  0  1  0  4  0  0  0  0  0  0
  124.5080   99.4061  -53.4345 C   0  0  0  1  0  4  0  0  0  0  0  0
  122.7802  101.2428  -53.7472 C   0  0  0  1  0  4  0  0  0  0  0  0
  124.1560  106.1120  -42.6860 O   0  0  0  1  0  2  0  0  0  0  0  0
  123.5602  100.6279  -51.4944 O   0  0  0  1  0  2  0  0  0  0  0  0
  124.2610   98.6198  -50.5902 O   0  0  0  1  0  1  0  0  0  0  0  0
  125.2210  103.5640  -41.0130 I   0  0  0  1  0  1  0  0  0  0  0  0
  123.9261   99.1002  -47.8533 H   0  0  0  1  0  1  0  0  0  0  0  0
  125.6094   99.5775  -48.2552 H   0  0  0  1  0  1  0  0  0  0  0  0
  123.8596  101.5077  -49.3686 H   0  0  0  1  0  1  0  0  0  0  0  0
  124.0165  107.4074  -43.7013 H   0  0  0  1  0  1  0  0  0  0  0  0
  124.4250  105.8660  -41.8080 H   0  0  0  1  0  1  0  0  0  0  0  0
  125.1680  101.7180  -43.5540 H   0  0  0  1  0  1  0  0  0  0  0  0
  122.3025  106.5011  -45.3250 H   0  0  0  1  0  1  0  0  0  0  0  0
  123.6904  106.5650  -46.4644 H   0  0  0  1  0  1  0  0  0  0  0  0
  125.3245  111.2840  -42.7651 H   0  0  0  1  0  1  0  0  0  0  0  0
  122.0122  108.5374  -44.4304 H   0  0  0  1  0  1  0  0  0  0  0  0
  122.9493  109.1523  -45.8350 H   0  0  0  1  0  1  0  0  0  0  0  0
  123.7390  104.2040  -46.7850 H   0  0  0  1  0  1  0  0  0  0  0  0
  123.6734  109.6065  -42.8888 H   0  0  0  1  0  1  0  0  0  0  0  0
  122.8779  110.8107  -43.9585 H   0  0  0  1  0  1  0  0  0  0  0  0
  124.8101  110.6027  -45.5568 H   0  0  0  1  0  1  0  0  0  0  0  0
  127.4921  110.8483  -43.6033 H   0  0  0  1  0  1  0  0  0  0  0  0
  127.2773  112.5673  -43.1268 H   0  0  0  1  0  1  0  0  0  0  0  0
  126.7556  113.1472  -45.4875 H   0  0  0  1  0  1  0  0  0  0  0  0
  127.0008  111.4299  -45.9564 H   0  0  0  1  0  1  0  0  0  0  0  0
  128.3808  112.3975  -45.3341 H   0  0  0  1  0  1  0  0  0  0  0  0
  124.7626  113.2735  -44.8135 H   0  0  0  1  0  1  0  0  0  0  0  0
  125.1267  113.5799  -43.0804 H   0  0  0  1  0  1  0  0  0  0  0  0
  123.0759  112.3483  -42.4422 H   0  0  0  1  0  1  0  0  0  0  0  0
  122.7095  112.0730  -44.1791 H   0  0  0  1  0  1  0  0  0  0  0  0
  122.7171  113.7426  -43.5168 H   0  0  0  1  0  1  0  0  0  0  0  0
  125.9842  108.8664  -43.3039 H   0  0  0  1  0  1  0  0  0  0  0  0
  126.8754  109.4315  -44.7568 H   0  0  0  1  0  1  0  0  0  0  0  0
  125.2779  108.2683  -46.2216 H   0  0  0  1  0  1  0  0  0  0  0  0
  125.9762  107.1152  -45.0340 H   0  0  0  1  0  1  0  0  0  0  0  0
  121.9135   98.6402  -53.5895 H   0  0  0  1  0  1  0  0  0  0  0  0
  121.3064   99.5685  -52.1788 H   0  0  0  1  0  1  0  0  0  0  0  0
  122.5504   98.2949  -51.9473 H   0  0  0  1  0  1  0  0  0  0  0  0
  124.7832   98.5534  -52.7963 H   0  0  0  1  0  1  0  0  0  0  0  0
  125.3553  100.1053  -53.4964 H   0  0  0  1  0  1  0  0  0  0  0  0
  124.2574   99.0452  -54.4421 H   0  0  0  1  0  1  0  0  0  0  0  0
  121.8392  101.6447  -53.3427 H   0  0  0  1  0  1  0  0  0  0  0  0
  122.6035  100.8394  -54.7547 H   0  0  0  1  0  1  0  0  0  0  0  0
  123.5301  102.0466  -53.7994 H   0  0  0  1  0  1  0  0  0  0  0  0
  1  7  1  0  0  0  0
  1 23  1  0  0  0  0
  1 34  1  0  0  0  0
  2 10  1  0  0  0  0
  2 11  1  0  0  0  0
  2 22  1  0  0  0  0
  2 35  1  0  0  0  0
  3 16  1  0  0  0  0
  3 17  1  0  0  0  0
  3 19  1  0  0  0  0
  3 40  1  0  0  0  0
  4  5  1  0  0  0  0
  4  9  2  0  0  0  0
  4 12  1  0  0  0  0
  5  6  3  0  0  0  0
  6  7  1  0  0  0  0
  7 32  1  0  0  0  0
  7 33  1  0  0  0  0
  8 10  1  0  0  0  0
  8 12  2  0  0  0  0
  8 14  1  0  0  0  0
  9 13  1  0  0  0  0
  9 37  1  0  0  0  0
 10 38  1  0  0  0  0
 10 39  1  0  0  0  0
 11 15  1  0  0  0  0
 11 41  1  0  0  0  0
 11 42  1  0  0  0  0
 12 43  1  0  0  0  0
 13 14  2  0  0  0  0
 13 31  1  0  0  0  0
 14 28  1  0  0  0  0
 15 16  1  0  0  0  0
 15 44  1  0  0  0  0
 15 45  1  0  0  0  0
 16 21  1  0  0  0  0
 16 46  1  0  0  0  0
 17 18  1  0  0  0  0
 17 47  1  0  0  0  0
 17 48  1  0  0  0  0
 18 49  1  0  0  0  0
 18 50  1  0  0  0  0
 18 51  1  0  0  0  0
 19 20  1  0  0  0  0
 19 52  1  0  0  0  0
 19 53  1  0  0  0  0
 20 54  1  0  0  0  0
 20 55  1  0  0  0  0
 20 56  1  0  0  0  0
 21 22  1  0  0  0  0
 21 57  1  0  0  0  0
 21 58  1  0  0  0  0
 22 59  1  0  0  0  0
 22 60  1  0  0  0  0
 23 29  1  0  0  0  0
 23 30  2  0  0  0  0
 24 25  1  0  0  0  0
 24 26  1  0  0  0  0
 24 27  1  0  0  0  0
 24 29  1  0  0  0  0
 25 61  1  0  0  0  0
 25 62  1  0  0  0  0
 25 63  1  0  0  0  0
 26 64  1  0  0  0  0
 26 65  1  0  0  0  0
 26 66  1  0  0  0  0
 27 67  1  0  0  0  0
 27 68  1  0  0  0  0
 27 69  1  0  0  0  0
 28 36  1  0  0  0  0
M  END
> <ConfScore>
-0.655277 

$$$$
4ago


 69 70  0  0  0  0  0  0  0  0999 V2000
  124.1149  100.5411  -49.3604 N   0  0  0  1  0  3  0  0  0  0  0  0
  123.9473  107.6542  -44.6758 N   0  3  0  1  0  4  0  0  0  0  0  0
  125.4511  111.5657  -43.7236 N   0  3  0  1  0  4  0  0  0  0  0  0
  124.4410  102.8420  -45.2570 C   0  0  0  1  0  3  0  0  0  0  0  0
  124.5030  101.8040  -46.2320 C   0  0  0  1  0  2  0  0  0  0  0  0
  124.5352  100.9709  -47.0882 C   0  0  0  1  0  2  0  0  0  0  0  0
  124.5792   99.9403  -48.1297 C   0  0  0  1  0  4  0  0  0  0  0  0
  123.8990  105.1710  -44.8720 C   0  0  0  1  0  3  0  0  0  0  0  0
  124.8080  102.6740  -43.9190 C   0  0  0  1  0  3  0  0  0  0  0  0
  123.4000  106.4840  -45.4060 C   0  0  0  1  0  4  0  0  0  0  0  0
  123.0125  108.8238  -44.7871 C   0  0  0  1  0  4  0  0  0  0  0  0
  124.0000  104.0880  -45.7400 C   0  0  0  1  0  3  0  0  0  0  0  0
  124.6970  103.7740  -43.0690 C   0  0  0  1  0  3  0  0  0  0  0  0
  124.2530  105.0330  -43.5070 C   0  0  0  1  0  3  0  0  0  0  0  0
  123.5615  109.9492  -43.9281 C   0  0  0  1  0  4  0  0  0  0  0  0
  124.9177  110.3425  -44.4929 C   0  0  0  1  0  4  0  0  0  0  0  0
  126.9649  111.7853  -43.8353 C   0  0  0  1  0  4  0  0  0  0  0  0
  127.2983  112.2196  -45.2507 C   0  0  0  1  0  4  0  0  0  0  0  0
  124.6729  112.8746  -43.7914 C   0  0  0  1  0  4  0  0  0  0  0  0
  123.1905  112.7515  -43.4594 C   0  0  0  1  0  4  0  0  0  0  0  0
  125.8871  109.1525  -44.3612 C   0  0  0  1  0  4  0  0  0  0  0  0
  125.3231  107.9915  -45.1576 C   0  0  0  1  0  4  0  0  0  0  0  0
  124.0181   99.8148  -50.5128 C   0  0  0  1  0  3  0  0  0  0  0  0
  123.2936  100.1247  -52.8316 C   0  0  0  1  0  4  0  0  0  0  0  0
  122.1879   99.0838  -52.6217 C   0  0  0  1  0  4  0  0  0  0  0  0
  124.5080   99.4061  -53.4345 C   0  0  0  1  0  4  0  0  0  0  0  0
  122.7802  101.2428  -53.7472 C   0  0  0  1  0  4  0  0  0  0  0  0
  124.1560  106.1120  -42.6860 O   0  0  0  1  0  2  0  0  0  0  0  0
  123.5602  100.6279  -51.4944 O   0  0  0  1  0  2  0  0  0  0  0  0
  124.2610   98.6198  -50.5902 O   0  0  0  1  0  1  0  0  0  0  0  0
  125.2210  103.5640  -41.0130 I   0  0  0  1  0  1  0  0  0  0  0  0
  123.9261   99.1002  -47.8533 H   0  0  0  1  0  1  0  0  0  0  0  0
  125.6094   99.5775  -48.2552 H   0  0  0  1  0  1  0  0  0  0  0  0
  123.8596  101.5077  -49.3686 H   0  0  0  1  0  1  0  0  0  0  0  0
  124.0165  107.4074  -43.7013 H   0  0  0  1  0  1  0  0  0  0  0  0
  124.4250  105.8660  -41.8080 H   0  0  0  1  0  1  0  0  0  0  0  0
  125.1680  101.7180  -43.5540 H   0  0  0  1  0  1  0  0  0  0  0  0
  122.3025  106.5011  -45.3250 H   0  0  0  1  0  1  0  0  0  0  0  0
  123.6904  106.5650  -46.4644 H   0  0  0  1  0  1  0  0  0  0  0  0
  125.3245  111.2840  -42.7651 H   0  0  0  1  0  1  0  0  0  0  0  0
  122.0122  108.5374  -44.4304 H   0  0  0  1  0  1  0  0  0  0  0  0
  122.9493  109.1523  -45.8350 H   0  0  0  1  0  1  0  0  0  0  0  0
  123.7390  104.2040  -46.7850 H   0  0  0  1  0  1  0  0  0  0  0  0
  123.6734  109.6065  -42.8888 H   0  0  0  1  0  1  0  0  0  0  0  0
  122.8779  110.8107  -43.9585 H   0  0  0  1  0  1  0  0  0  0  0  0
  124.8101  110.6027  -45.5568 H   0  0  0  1  0  1  0  0  0  0  0  0
  127.4921  110.8483  -43.6033 H   0  0  0  1  0  1  0  0  0  0  0  0
  127.2773  112.5673  -43.1268 H   0  0  0  1  0  1  0  0  0  0  0  0
  126.9995  111.4301  -45.9569 H   0  0  0  1  0  1  0  0  0  0  0  0
  128.3808  112.3967  -45.3347 H   0  0  0  1  0  1  0  0  0  0  0  0
  126.7553  113.1467  -45.4871 H   0  0  0  1  0  1  0  0  0  0  0  0
  124.7626  113.2735  -44.8135 H   0  0  0  1  0  1  0  0  0  0  0  0
  125.1267  113.5799  -43.0804 H   0  0  0  1  0  1  0  0  0  0  0  0
  123.0759  112.3483  -42.4422 H   0  0  0  1  0  1  0  0  0  0  0  0
  122.7095  112.0730  -44.1791 H   0  0  0  1  0  1  0  0  0  0  0  0
  122.7171  113.7426  -43.5168 H   0  0  0  1  0  1  0  0  0  0  0  0
  125.9842  108.8664  -43.3039 H   0  0  0  1  0  1  0  0  0  0  0  0
  126.8754  109.4315  -44.7568 H   0  0  0  1  0  1  0  0  0  0  0  0
  125.2779  108.2683  -46.2216 H   0  0  0  1  0  1  0  0  0  0  0  0
  125.9762  107.1152  -45.0340 H   0  0  0  1  0  1  0  0  0  0  0  0
  121.9135   98.6402  -53.5895 H   0  0  0  1  0  1  0  0  0  0  0  0
  121.3064   99.5685  -52.1788 H   0  0  0  1  0  1  0  0  0  0  0  0
  122.5504   98.2949  -51.9473 H   0  0  0  1  0  1  0  0  0  0  0  0
  124.7832   98.5534  -52.7963 H   0  0  0  1  0  1  0  0  0  0  0  0
  125.3553  100.1053  -53.4964 H   0  0  0  1  0  1  0  0  0  0  0  0
  124.2574   99.0452  -54.4421 H   0  0  0  1  0  1  0  0  0  0  0  0
  121.8392  101.6447  -53.3427 H   0  0  0  1  0  1  0  0  0  0  0  0
  122.6035  100.8394  -54.7547 H   0  0  0  1  0  1  0  0  0  0  0  0
  123.5301  102.0466  -53.7994 H   0  0  0  1  0  1  0  0  0  0  0  0
  1  7  1  0  0  0  0
  1 23  1  0  0  0  0
  1 34  1  0  0  0  0
  2 10  1  0  0  0  0
  2 11  1  0  0  0  0
  2 22  1  0  0  0  0
  2 35  1  0  0  0  0
  3 16  1  0  0  0  0
  3 17  1  0  0  0  0
  3 19  1  0  0  0  0
  3 40  1  0  0  0  0
  4  5  1  0  0  0  0
  4  9  2  0  0  0  0
  4 12  1  0  0  0  0
  5  6  3  0  0  0  0
  6  7  1  0  0  0  0
  7 32  1  0  0  0  0
  7 33  1  0  0  0  0
  8 10  1  0  0  0  0
  8 12  2  0  0  0  0
  8 14  1  0  0  0  0
  9 13  1  0  0  0  0
  9 37  1  0  0  0  0
 10 38  1  0  0  0  0
 10 39  1  0  0  0  0
 11 15  1  0  0  0  0
 11 41  1  0  0  0  0
 11 42  1  0  0  0  0
 12 43  1  0  0  0  0
 13 14  2  0  0  0  0
 13 31  1  0  0  0  0
 14 28  1  0  0  0  0
 15 16  1  0  0  0  0
 15 44  1  0  0  0  0
 15 45  1  0  0  0  0
 16 21  1  0  0  0  0
 16 46  1  0  0  0  0
 17 18  1  0  0  0  0
 17 47  1  0  0  0  0
 17 48  1  0  0  0  0
 18 49  1  0  0  0  0
 18 50  1  0  0  0  0
 18 51  1  0  0  0  0
 19 20  1  0  0  0  0
 19 52  1  0  0  0  0
 19 53  1  0  0  0  0
 20 54  1  0  0  0  0
 20 55  1  0  0  0  0
 20 56  1  0  0  0  0
 21 22  1  0  0  0  0
 21 57  1  0  0  0  0
 21 58  1  0  0  0  0
 22 59  1  0  0  0  0
 22 60  1  0  0  0  0
 23 29  1  0  0  0  0
 23 30  2  0  0  0  0
 24 25  1  0  0  0  0
 24 26  1  0  0  0  0
 24 27  1  0  0  0  0
 24 29  1  0  0  0  0
 25 61  1  0  0  0  0
 25 62  1  0  0  0  0
 25 63  1  0  0  0  0
 26 64  1  0  0  0  0
 26 65  1  0  0  0  0
 26 66  1  0  0  0  0
 27 67  1  0  0  0  0
 27 68  1  0  0  0  0
 27 69  1  0  0  0  0
 28 36  1  0  0  0  0
M  END
> <ConfScore>
-0.655277 

$$$$
4ago


 69 70  0  0  0  0  0  0  0  0999 V2000
    6.8765    0.5127   35.8660 N   0  0  0  1  0  3  0  0  0  0  0  0
    6.2513    2.9104   27.5538 N   0  3  0  1  0  4  0  0  0  0  0  0
    3.8312    1.2170   25.3839 N   0  3  0  1  0  4  0  0  0  0  0  0
    8.5930    1.3120   31.5470 C   0  0  0  1  0  3  0  0  0  0  0  0
    8.4906    0.8759   32.9002 C   0  0  0  1  0  2  0  0  0  0  0  0
    8.3518    0.5322   34.0364 C   0  0  0  1  0  2  0  0  0  0  0  0
    8.1938    0.1055   35.4298 C   0  0  0  1  0  4  0  0  0  0  0  0
    7.6270    2.3630   29.6260 C   0  0  0  1  0  3  0  0  0  0  0  0
    9.7440    1.0760   30.8280 C   0  0  0  1  0  3  0  0  0  0  0  0
    6.4640    3.0610   28.9950 C   0  0  0  1  0  4  0  0  0  0  0  0
    6.3171    1.4816   27.2089 C   0  0  0  1  0  4  0  0  0  0  0  0
    7.5450    1.9700   30.9520 C   0  0  0  1  0  3  0  0  0  0  0  0
    9.8450    1.4950   29.5070 C   0  0  0  1  0  3  0  0  0  0  0  0
    8.7880    2.1430   28.9040 C   0  0  0  1  0  3  0  0  0  0  0  0
    6.3071    1.3438   25.7029 C   0  0  0  1  0  4  0  0  0  0  0  0
    5.0950    2.0380   25.0656 C   0  0  0  1  0  4  0  0  0  0  0  0
    3.5232    1.0647   26.8786 C   0  0  0  1  0  4  0  0  0  0  0  0
    2.4083    0.0498   27.0527 C   0  0  0  1  0  4  0  0  0  0  0  0
    2.5722    1.4537   24.5578 C   0  0  0  1  0  4  0  0  0  0  0  0
    1.5402    0.3349   24.6358 C   0  0  0  1  0  4  0  0  0  0  0  0
    4.8990    3.4608   25.5849 C   0  0  0  1  0  4  0  0  0  0  0  0
    4.9732    3.4915   27.1007 C   0  0  0  1  0  4  0  0  0  0  0  0
    6.1654   -0.2293   36.7651 C   0  0  0  1  0  3  0  0  0  0  0  0
    3.9975   -0.1677   37.9029 C   0  0  0  1  0  4  0  0  0  0  0  0
    4.7130   -0.1627   39.2588 C   0  0  0  1  0  4  0  0  0  0  0  0
    3.6421   -1.6215   37.5639 C   0  0  0  1  0  4  0  0  0  0  0  0
    2.7505    0.7219   37.9763 C   0  0  0  1  0  4  0  0  0  0  0  0
    8.8845    2.5615   27.6143 O   0  0  0  1  0  2  0  0  0  0  0  0
    4.9794    0.3865   36.9859 O   0  0  0  1  0  2  0  0  0  0  0  0
    6.5870   -1.2440   37.2996 O   0  0  0  1  0  1  0  0  0  0  0  0
   11.6378    1.1351   28.4106 I   0  0  0  1  0  1  0  0  0  0  0  0
    8.9603    0.5828   36.0571 H   0  0  0  1  0  1  0  0  0  0  0  0
    8.2908   -0.9873   35.5009 H   0  0  0  1  0  1  0  0  0  0  0  0
    6.4778    1.3543   35.5023 H   0  0  0  1  0  1  0  0  0  0  0  0
    6.9787    3.4204   27.0780 H   0  0  0  1  0  1  0  0  0  0  0  0
    9.1378    1.8297   27.0629 H   0  0  0  1  0  1  0  0  0  0  0  0
   10.5760    0.5603   31.2955 H   0  0  0  1  0  1  0  0  0  0  0  0
    5.5553    2.6946   29.4966 H   0  0  0  1  0  1  0  0  0  0  0  0
    6.5851    4.1366   29.1938 H   0  0  0  1  0  1  0  0  0  0  0  0
    4.1062    0.2893   25.1048 H   0  0  0  1  0  1  0  0  0  0  0  0
    5.4478    0.9583   27.6338 H   0  0  0  1  0  1  0  0  0  0  0  0
    7.2422    1.0456   27.6140 H   0  0  0  1  0  1  0  0  0  0  0  0
    6.6491    2.1830   31.5226 H   0  0  0  1  0  1  0  0  0  0  0  0
    6.2790    0.2747   25.4452 H   0  0  0  1  0  1  0  0  0  0  0  0
    7.2260    1.7947   25.2998 H   0  0  0  1  0  1  0  0  0  0  0  0
    5.2429    2.0769   23.9758 H   0  0  0  1  0  1  0  0  0  0  0  0
    3.2071    2.0340   27.2913 H   0  0  0  1  0  1  0  0  0  0  0  0
    4.4237    0.7169   27.4071 H   0  0  0  1  0  1  0  0  0  0  0  0
    2.7263   -0.9193   26.6394 H   0  0  0  1  0  1  0  0  0  0  0  0
    1.5095    0.3978   26.5225 H   0  0  0  1  0  1  0  0  0  0  0  0
    2.1815   -0.0655   28.1231 H   0  0  0  1  0  1  0  0  0  0  0  0
    2.8710    1.5708   23.5047 H   0  0  0  1  0  1  0  0  0  0  0  0
    2.1002    2.3816   24.9114 H   0  0  0  1  0  1  0  0  0  0  0  0
    0.6721    0.5941   24.0116 H   0  0  0  1  0  1  0  0  0  0  0  0
    1.2166    0.2077   25.6792 H   0  0  0  1  0  1  0  0  0  0  0  0
    1.9861   -0.6028   24.2731 H   0  0  0  1  0  1  0  0  0  0  0  0
    3.9143    3.8300   25.2639 H   0  0  0  1  0  1  0  0  0  0  0  0
    5.6869    4.1083   25.1712 H   0  0  0  1  0  1  0  0  0  0  0  0
    4.9029    4.5332   27.4481 H   0  0  0  1  0  1  0  0  0  0  0  0
    4.1395    2.9082   27.5182 H   0  0  0  1  0  1  0  0  0  0  0  0
    5.6251   -0.7731   39.1942 H   0  0  0  1  0  1  0  0  0  0  0  0
    4.0471   -0.5807   40.0269 H   0  0  0  1  0  1  0  0  0  0  0  0
    4.9814    0.8688   39.5277 H   0  0  0  1  0  1  0  0  0  0  0  0
    2.8984   -1.9943   38.2837 H   0  0  0  1  0  1  0  0  0  0  0  0
    4.5480   -2.2435   37.6186 H   0  0  0  1  0  1  0  0  0  0  0  0
    3.2262   -1.6697   36.5475 H   0  0  0  1  0  1  0  0  0  0  0  0
    2.2342    0.7102   37.0047 H   0  0  0  1  0  1  0  0  0  0  0  0
    3.0486    1.7516   38.2208 H   0  0  0  1  0  1  0  0  0  0  0  0
    2.0738    0.3403   38.7559 H   0  0  0  1  0  1  0  0  0  0  0  0
  1  7  1  0  0  0  0
  1 23  1  0  0  0  0
  1 34  1  0  0  0  0
  2 10  1  0  0  0  0
  2 11  1  0  0  0  0
  2 22  1  0  0  0  0
  2 35  1  0  0  0  0
  3 16  1  0  0  0  0
  3 17  1  0  0  0  0
  3 19  1  0  0  0  0
  3 40  1  0  0  0  0
  4  5  1  0  0  0  0
  4  9  2  0  0  0  0
  4 12  1  0  0  0  0
  5  6  3  0  0  0  0
  6  7  1  0  0  0  0
  7 32  1  0  0  0  0
  7 33  1  0  0  0  0
  8 10  1  0  0  0  0
  8 12  2  0  0  0  0
  8 14  1  0  0  0  0
  9 13  1  0  0  0  0
  9 37  1  0  0  0  0
 10 38  1  0  0  0  0
 10 39  1  0  0  0  0
 11 15  1  0  0  0  0
 11 41  1  0  0  0  0
 11 42  1  0  0  0  0
 12 43  1  0  0  0  0
 13 14  2  0  0  0  0
 13 31  1  0  0  0  0
 14 28  1  0  0  0  0
 15 16  1  0  0  0  0
 15 44  1  0  0  0  0
 15 45  1  0  0  0  0
 16 21  1  0  0  0  0
 16 46  1  0  0  0  0
 17 18  1  0  0  0  0
 17 47  1  0  0  0  0
 17 48  1  0  0  0  0
 18 49  1  0  0  0  0
 18 50  1  0  0  0  0
 18 51  1  0  0  0  0
 19 20  1  0  0  0  0
 19 52  1  0  0  0  0
 19 53  1  0  0  0  0
 20 54  1  0  0  0  0
 20 55  1  0  0  0  0
 20 56  1  0  0  0  0
 21 22  1  0  0  0  0
 21 57  1  0  0  0  0
 21 58  1  0  0  0  0
 22 59  1  0  0  0  0
 22 60  1  0  0  0  0
 23 29  1  0  0  0  0
 23 30  2  0  0  0  0
 24 25  1  0  0  0  0
 24 26  1  0  0  0  0
 24 27  1  0  0  0  0
 24 29  1  0  0  0  0
 25 61  1  0  0  0  0
 25 62  1  0  0  0  0
 25 63  1  0  0  0  0
 26 64  1  0  0  0  0
 26 65  1  0  0  0  0
 26 66  1  0  0  0  0
 27 67  1  0  0  0  0
 27 68  1  0  0  0  0
 27 69  1  0  0  0  0
 28 36  1  0  0  0  0
M  END
> <ConfScore>
-0.65208 

$$$$
4ago


 69 70  0  0  0  0  0  0  0  0999 V2000
   91.1554   91.2821  -49.2504 N   0  0  0  1  0  3  0  0  0  0  0  0
   90.3683   98.3703  -44.5750 N   0  3  0  1  0  4  0  0  0  0  0  0
   92.2965  102.1278  -43.7275 N   0  3  0  1  0  4  0  0  0  0  0  0
   91.2337   93.6144  -45.1525 C   0  0  0  1  0  3  0  0  0  0  0  0
   91.3933   92.5817  -46.1220 C   0  0  0  1  0  2  0  0  0  0  0  0
   91.5051   91.7512  -46.9740 C   0  0  0  1  0  2  0  0  0  0  0  0
   91.6473   90.7242  -48.0102 C   0  0  0  1  0  4  0  0  0  0  0  0
   90.5014   95.8938  -44.7858 C   0  0  0  1  0  3  0  0  0  0  0  0
   91.5924   93.4805  -43.8084 C   0  0  0  1  0  3  0  0  0  0  0  0
   89.9050   97.1660  -45.3350 C   0  0  0  1  0  4  0  0  0  0  0  0
   89.7773   99.6388  -45.1311 C   0  0  0  1  0  4  0  0  0  0  0  0
   90.7019   94.8197  -45.6475 C   0  0  0  1  0  3  0  0  0  0  0  0
   91.3808   94.5707  -42.9650 C   0  0  0  1  0  3  0  0  0  0  0  0
   90.8444   95.7888  -43.4150 C   0  0  0  1  0  3  0  0  0  0  0  0
   90.2381  100.8197  -44.2908 C   0  0  0  1  0  4  0  0  0  0  0  0
   91.7591  100.8630  -44.4231 C   0  0  0  1  0  4  0  0  0  0  0  0
   93.7191  102.5305  -44.1355 C   0  0  0  1  0  4  0  0  0  0  0  0
   94.5700  101.2802  -44.2609 C   0  0  0  1  0  4  0  0  0  0  0  0
   91.3765  103.3342  -43.5803 C   0  0  0  1  0  4  0  0  0  0  0  0
   89.9401  102.9963  -43.1990 C   0  0  0  1  0  4  0  0  0  0  0  0
   92.3754   99.6202  -43.7663 C   0  0  0  1  0  4  0  0  0  0  0  0
   91.8687   98.4061  -44.5276 C   0  0  0  1  0  4  0  0  0  0  0  0
   91.7015   90.9326  -50.4522 C   0  0  0  1  0  3  0  0  0  0  0  0
   91.3058   91.3136  -52.8389 C   0  0  0  1  0  4  0  0  0  0  0  0
   92.6860   91.9659  -52.9793 C   0  0  0  1  0  4  0  0  0  0  0  0
   90.3390   92.0523  -53.7740 C   0  0  0  1  0  4  0  0  0  0  0  0
   91.4044   89.8224  -53.1831 C   0  0  0  1  0  4  0  0  0  0  0  0
   90.6489   96.8591  -42.6002 O   0  0  0  1  0  2  0  0  0  0  0  0
   90.9687   91.5034  -51.4380 O   0  0  0  1  0  2  0  0  0  0  0  0
   92.6586   90.1832  -50.5762 O   0  0  0  1  0  1  0  0  0  0  0  0
   91.8884   94.4097  -40.9004 I   0  0  0  1  0  1  0  0  0  0  0  0
   91.0592   89.8353  -47.7401 H   0  0  0  1  0  1  0  0  0  0  0  0
   92.7050   90.4445  -48.1187 H   0  0  0  1  0  1  0  0  0  0  0  0
   90.4003   91.9370  -49.2283 H   0  0  0  1  0  1  0  0  0  0  0  0
   90.0347   98.3007  -43.6266 H   0  0  0  1  0  1  0  0  0  0  0  0
   90.9232   96.6382  -41.7172 H   0  0  0  1  0  1  0  0  0  0  0  0
   92.0220   92.5575  -43.4340 H   0  0  0  1  0  1  0  0  0  0  0  0
   90.2035   97.2734  -46.3890 H   0  0  0  1  0  1  0  0  0  0  0  0
   88.8083   97.1030  -45.2684 H   0  0  0  1  0  1  0  0  0  0  0  0
   92.4042  101.8159  -42.7761 H   0  0  0  1  0  1  0  0  0  0  0  0
   88.6795   99.5751  -45.1039 H   0  0  0  1  0  1  0  0  0  0  0  0
   90.1117   99.7749  -46.1702 H   0  0  0  1  0  1  0  0  0  0  0  0
   90.4485   94.9112  -46.6968 H   0  0  0  1  0  1  0  0  0  0  0  0
   89.9501  100.6757  -43.2389 H   0  0  0  1  0  1  0  0  0  0  0  0
   89.7951  101.7533  -44.6684 H   0  0  0  1  0  1  0  0  0  0  0  0
   92.0322  100.8858  -45.4890 H   0  0  0  1  0  1  0  0  0  0  0  0
   94.1489  103.1937  -43.3705 H   0  0  0  1  0  1  0  0  0  0  0  0
   93.6908  103.0554  -45.1023 H   0  0  0  1  0  1  0  0  0  0  0  0
   94.5960  100.7553  -43.2940 H   0  0  0  1  0  1  0  0  0  0  0  0
   95.5926  101.5603  -44.5541 H   0  0  0  1  0  1  0  0  0  0  0  0
   94.1374  100.6177  -45.0255 H   0  0  0  1  0  1  0  0  0  0  0  0
   91.3582  103.8700  -44.5419 H   0  0  0  1  0  1  0  0  0  0  0  0
   91.7933  103.9896  -42.8022 H   0  0  0  1  0  1  0  0  0  0  0  0
   89.9339  102.4540  -42.2417 H   0  0  0  1  0  1  0  0  0  0  0  0
   89.4929  102.3651  -43.9807 H   0  0  0  1  0  1  0  0  0  0  0  0
   89.3580  103.9240  -43.0989 H   0  0  0  1  0  1  0  0  0  0  0  0
   92.0660   99.5593  -42.7129 H   0  0  0  1  0  1  0  0  0  0  0  0
   93.4733   99.6694  -43.8245 H   0  0  0  1  0  1  0  0  0  0  0  0
   92.2576   98.4419  -45.5564 H   0  0  0  1  0  1  0  0  0  0  0  0
   92.2318   97.4954  -44.0294 H   0  0  0  1  0  1  0  0  0  0  0  0
   93.0263   91.8832  -54.0214 H   0  0  0  1  0  1  0  0  0  0  0  0
   93.4020   91.4560  -52.3194 H   0  0  0  1  0  1  0  0  0  0  0  0
   92.6201   93.0269  -52.6990 H   0  0  0  1  0  1  0  0  0  0  0  0
   89.3171   91.6774  -53.6150 H   0  0  0  1  0  1  0  0  0  0  0  0
   90.6341   91.8779  -54.8196 H   0  0  0  1  0  1  0  0  0  0  0  0
   90.3728   93.1298  -53.5593 H   0  0  0  1  0  1  0  0  0  0  0  0
   92.1975   89.3582  -52.5780 H   0  0  0  1  0  1  0  0  0  0  0  0
   91.6427   89.7075  -54.2504 H   0  0  0  1  0  1  0  0  0  0  0  0
   90.4431   89.3322  -52.9664 H   0  0  0  1  0  1  0  0  0  0  0  0
  1  7  1  0  0  0  0
  1 23  1  0  0  0  0
  1 34  1  0  0  0  0
  2 10  1  0  0  0  0
  2 11  1  0  0  0  0
  2 22  1  0  0  0  0
  2 35  1  0  0  0  0
  3 16  1  0  0  0  0
  3 17  1  0  0  0  0
  3 19  1  0  0  0  0
  3 40  1  0  0  0  0
  4  5  1  0  0  0  0
  4  9  2  0  0  0  0
  4 12  1  0  0  0  0
  5  6  3  0  0  0  0
  6  7  1  0  0  0  0
  7 32  1  0  0  0  0
  7 33  1  0  0  0  0
  8 10  1  0  0  0  0
  8 12  2  0  0  0  0
  8 14  1  0  0  0  0
  9 13  1  0  0  0  0
  9 37  1  0  0  0  0
 10 38  1  0  0  0  0
 10 39  1  0  0  0  0
 11 15  1  0  0  0  0
 11 41  1  0  0  0  0
 11 42  1  0  0  0  0
 12 43  1  0  0  0  0
 13 14  2  0  0  0  0
 13 31  1  0  0  0  0
 14 28  1  0  0  0  0
 15 16  1  0  0  0  0
 15 44  1  0  0  0  0
 15 45  1  0  0  0  0
 16 21  1  0  0  0  0
 16 46  1  0  0  0  0
 17 18  1  0  0  0  0
 17 47  1  0  0  0  0
 17 48  1  0  0  0  0
 18 49  1  0  0  0  0
 18 50  1  0  0  0  0
 18 51  1  0  0  0  0
 19 20  1  0  0  0  0
 19 52  1  0  0  0  0
 19 53  1  0  0  0  0
 20 54  1  0  0  0  0
 20 55  1  0  0  0  0
 20 56  1  0  0  0  0
 21 22  1  0  0  0  0
 21 57  1  0  0  0  0
 21 58  1  0  0  0  0
 22 59  1  0  0  0  0
 22 60  1  0  0  0  0
 23 29  1  0  0  0  0
 23 30  2  0  0  0  0
 24 25  1  0  0  0  0
 24 26  1  0  0  0  0
 24 27  1  0  0  0  0
 24 29  1  0  0  0  0
 25 61  1  0  0  0  0
 25 62  1  0  0  0  0
 25 63  1  0  0  0  0
 26 64  1  0  0  0  0
 26 65  1  0  0  0  0
 26 66  1  0  0  0  0
 27 67  1  0  0  0  0
 27 68  1  0  0  0  0
 27 69  1  0  0  0  0
 28 36  1  0  0  0  0
M  END
> <ConfScore>
-0.651479 

$$$$
4ago


 69 70  0  0  0  0  0  0  0  0999 V2000
    0.8551    7.0207   -0.1982 N   0  0  0  1  0  3  0  0  0  0  0  0
    3.6402    4.4986    7.5101 N   0  3  0  1  0  4  0  0  0  0  0  0
    6.9232    5.9256    8.5336 N   0  3  0  1  0  4  0  0  0  0  0  0
    1.0304    3.8802    3.3154 C   0  0  0  1  0  3  0  0  0  0  0  0
    0.7654    4.4745    2.0471 C   0  0  0  1  0  2  0  0  0  0  0  0
    0.5683    5.0206    1.0025 C   0  0  0  1  0  2  0  0  0  0  0  0
    0.3208    5.6796   -0.2832 C   0  0  0  1  0  4  0  0  0  0  0  0
    2.0257    4.2230    5.4966 C   0  0  0  1  0  3  0  0  0  0  0  0
    0.6701    2.5722    3.6509 C   0  0  0  1  0  3  0  0  0  0  0  0
    2.7438    5.1386    6.4710 C   0  0  0  1  0  4  0  0  0  0  0  0
    4.9831    4.1692    6.8928 C   0  0  0  1  0  4  0  0  0  0  0  0
    1.7180    4.7025    4.2270 C   0  0  0  1  0  3  0  0  0  0  0  0
    0.9887    2.1154    4.9294 C   0  0  0  1  0  3  0  0  0  0  0  0
    1.6660    2.9053    5.8735 C   0  0  0  1  0  3  0  0  0  0  0  0
    5.9877    3.6939    7.9204 C   0  0  0  1  0  4  0  0  0  0  0  0
    6.1888    4.6787    9.0611 C   0  0  0  1  0  4  0  0  0  0  0  0
    6.7789    7.1756    9.4105 C   0  0  0  1  0  4  0  0  0  0  0  0
    7.3408    8.3711    8.6634 C   0  0  0  1  0  4  0  0  0  0  0  0
    8.3353    5.7696    7.9813 C   0  0  0  1  0  4  0  0  0  0  0  0
    8.8066    6.9233    7.1040 C   0  0  0  1  0  4  0  0  0  0  0  0
    4.8470    5.0928    9.6364 C   0  0  0  1  0  4  0  0  0  0  0  0
    3.8572    5.5438    8.5796 C   0  0  0  1  0  4  0  0  0  0  0  0
    1.3891    7.6429   -1.2902 C   0  0  0  1  0  3  0  0  0  0  0  0
    2.3681    9.8081   -1.8828 C   0  0  0  1  0  4  0  0  0  0  0  0
    1.3099    9.8780   -2.9899 C   0  0  0  1  0  4  0  0  0  0  0  0
    3.6682    9.2841   -2.5072 C   0  0  0  1  0  4  0  0  0  0  0  0
    2.5539   11.1975   -1.2607 C   0  0  0  1  0  4  0  0  0  0  0  0
    1.9913    2.4605    7.1160 O   0  0  0  1  0  2  0  0  0  0  0  0
    1.8065    8.8767   -0.9188 O   0  0  0  1  0  2  0  0  0  0  0  0
    1.4166    7.1546   -2.4099 O   0  0  0  1  0  1  0  0  0  0  0  0
    0.4394    0.1357    5.4996 I   0  0  0  1  0  1  0  0  0  0  0  0
   -0.7598    5.7189   -0.4823 H   0  0  0  1  0  1  0  0  0  0  0  0
    0.8222    5.1271   -1.0907 H   0  0  0  1  0  1  0  0  0  0  0  0
    0.8335    7.5028    0.6774 H   0  0  0  1  0  1  0  0  0  0  0  0
    3.2274    3.6542    7.8737 H   0  0  0  1  0  1  0  0  0  0  0  0
    1.6862    1.5662    7.2212 H   0  0  0  1  0  1  0  0  0  0  0  0
    0.1590    1.9331    2.9388 H   0  0  0  1  0  1  0  0  0  0  0  0
    3.3669    5.8253    5.8780 H   0  0  0  1  0  1  0  0  0  0  0  0
    1.9748    5.7127    7.0096 H   0  0  0  1  0  1  0  0  0  0  0  0
    6.3891    6.1528    7.7106 H   0  0  0  1  0  1  0  0  0  0  0  0
    5.3781    5.0717    6.4035 H   0  0  0  1  0  1  0  0  0  0  0  0
    4.8426    3.3767    6.1430 H   0  0  0  1  0  1  0  0  0  0  0  0
    2.0067    5.7069    3.9417 H   0  0  0  1  0  1  0  0  0  0  0  0
    6.9541    3.5382    7.4185 H   0  0  0  1  0  1  0  0  0  0  0  0
    5.6340    2.7404    8.3401 H   0  0  0  1  0  1  0  0  0  0  0  0
    6.7916    4.2035    9.8498 H   0  0  0  1  0  1  0  0  0  0  0  0
    7.3335    7.0338   10.3497 H   0  0  0  1  0  1  0  0  0  0  0  0
    5.7154    7.3480    9.6347 H   0  0  0  1  0  1  0  0  0  0  0  0
    6.7848    8.5114    7.7241 H   0  0  0  1  0  1  0  0  0  0  0  0
    8.4034    8.1967    8.4384 H   0  0  0  1  0  1  0  0  0  0  0  0
    7.2407    9.2725    9.2861 H   0  0  0  1  0  1  0  0  0  0  0  0
    8.3679    4.8476    7.3806 H   0  0  0  1  0  1  0  0  0  0  0  0
    9.0272    5.6793    8.8310 H   0  0  0  1  0  1  0  0  0  0  0  0
    9.8304    6.7224    6.7547 H   0  0  0  1  0  1  0  0  0  0  0  0
    8.7947    7.8553    7.6878 H   0  0  0  1  0  1  0  0  0  0  0  0
    8.1365    7.0243    6.2378 H   0  0  0  1  0  1  0  0  0  0  0  0
    5.0094    5.9225   10.3396 H   0  0  0  1  0  1  0  0  0  0  0  0
    4.4172    4.2343   10.1743 H   0  0  0  1  0  1  0  0  0  0  0  0
    2.8934    5.7567    9.0662 H   0  0  0  1  0  1  0  0  0  0  0  0
    4.2394    6.4597    8.1058 H   0  0  0  1  0  1  0  0  0  0  0  0
    1.1532    8.8747   -3.4111 H   0  0  0  1  0  1  0  0  0  0  0  0
    1.6523   10.5580   -3.7828 H   0  0  0  1  0  1  0  0  0  0  0  0
    0.3645   10.2504   -2.5702 H   0  0  0  1  0  1  0  0  0  0  0  0
    4.0524   10.0219   -3.2270 H   0  0  0  1  0  1  0  0  0  0  0  0
    3.4696    8.3348   -3.0270 H   0  0  0  1  0  1  0  0  0  0  0  0
    4.4140    9.1191   -1.7167 H   0  0  0  1  0  1  0  0  0  0  0  0
    3.3196   11.1466   -0.4721 H   0  0  0  1  0  1  0  0  0  0  0  0
    1.6019   11.5349   -0.8261 H   0  0  0  1  0  1  0  0  0  0  0  0
    2.8748   11.9070   -2.0384 H   0  0  0  1  0  1  0  0  0  0  0  0
  1  7  1  0  0  0  0
  1 23  1  0  0  0  0
  1 34  1  0  0  0  0
  2 10  1  0  0  0  0
  2 11  1  0  0  0  0
  2 22  1  0  0  0  0
  2 35  1  0  0  0  0
  3 16  1  0  0  0  0
  3 17  1  0  0  0  0
  3 19  1  0  0  0  0
  3 40  1  0  0  0  0
  4  5  1  0  0  0  0
  4  9  2  0  0  0  0
  4 12  1  0  0  0  0
  5  6  3  0  0  0  0
  6  7  1  0  0  0  0
  7 32  1  0  0  0  0
  7 33  1  0  0  0  0
  8 10  1  0  0  0  0
  8 12  2  0  0  0  0
  8 14  1  0  0  0  0
  9 13  1  0  0  0  0
  9 37  1  0  0  0  0
 10 38  1  0  0  0  0
 10 39  1  0  0  0  0
 11 15  1  0  0  0  0
 11 41  1  0  0  0  0
 11 42  1  0  0  0  0
 12 43  1  0  0  0  0
 13 14  2  0  0  0  0
 13 31  1  0  0  0  0
 14 28  1  0  0  0  0
 15 16  1  0  0  0  0
 15 44  1  0  0  0  0
 15 45  1  0  0  0  0
 16 21  1  0  0  0  0
 16 46  1  0  0  0  0
 17 18  1  0  0  0  0
 17 47  1  0  0  0  0
 17 48  1  0  0  0  0
 18 49  1  0  0  0  0
 18 50  1  0  0  0  0
 18 51  1  0  0  0  0
 19 20  1  0  0  0  0
 19 52  1  0  0  0  0
 19 53  1  0  0  0  0
 20 54  1  0  0  0  0
 20 55  1  0  0  0  0
 20 56  1  0  0  0  0
 21 22  1  0  0  0  0
 21 57  1  0  0  0  0
 21 58  1  0  0  0  0
 22 59  1  0  0  0  0
 22 60  1  0  0  0  0
 23 29  1  0  0  0  0
 23 30  2  0  0  0  0
 24 25  1  0  0  0  0
 24 26  1  0  0  0  0
 24 27  1  0  0  0  0
 24 29  1  0  0  0  0
 25 61  1  0  0  0  0
 25 62  1  0  0  0  0
 25 63  1  0  0  0  0
 26 64  1  0  0  0  0
 26 65  1  0  0  0  0
 26 66  1  0  0  0  0
 27 67  1  0  0  0  0
 27 68  1  0  0  0  0
 27 69  1  0  0  0  0
 28 36  1  0  0  0  0
M  END
> <ConfScore>
-0.647586 

$$$$
4ago


 69 70  0  0  0  0  0  0  0  0999 V2000
   91.1554   91.2821  -49.2504 N   0  0  0  1  0  3  0  0  0  0  0  0
   90.3683   98.3703  -44.5750 N   0  3  0  1  0  4  0  0  0  0  0  0
   91.6630  102.3994  -43.7717 N   0  3  0  1  0  4  0  0  0  0  0  0
   91.2337   93.6144  -45.1525 C   0  0  0  1  0  3  0  0  0  0  0  0
   91.3933   92.5817  -46.1220 C   0  0  0  1  0  2  0  0  0  0  0  0
   91.5051   91.7512  -46.9740 C   0  0  0  1  0  2  0  0  0  0  0  0
   91.6473   90.7242  -48.0102 C   0  0  0  1  0  4  0  0  0  0  0  0
   90.5014   95.8938  -44.7858 C   0  0  0  1  0  3  0  0  0  0  0  0
   91.5924   93.4805  -43.8084 C   0  0  0  1  0  3  0  0  0  0  0  0
   89.9050   97.1660  -45.3350 C   0  0  0  1  0  4  0  0  0  0  0  0
   89.3636   99.4899  -44.6430 C   0  0  0  1  0  4  0  0  0  0  0  0
   90.7019   94.8197  -45.6475 C   0  0  0  1  0  3  0  0  0  0  0  0
   91.3808   94.5707  -42.9650 C   0  0  0  1  0  3  0  0  0  0  0  0
   90.8444   95.7888  -43.4150 C   0  0  0  1  0  3  0  0  0  0  0  0
   89.8603  100.6634  -43.8128 C   0  0  0  1  0  4  0  0  0  0  0  0
   91.1701  101.1115  -44.4579 C   0  0  0  1  0  4  0  0  0  0  0  0
   92.7051  103.1940  -44.5686 C   0  0  0  1  0  4  0  0  0  0  0  0
   93.0415  104.4657  -43.8119 C   0  0  0  1  0  4  0  0  0  0  0  0
   90.6449  103.3065  -43.0904 C   0  0  0  1  0  4  0  0  0  0  0  0
   89.8222  104.1670  -44.0419 C   0  0  0  1  0  4  0  0  0  0  0  0
   92.2311  100.0135  -44.3015 C   0  0  0  1  0  4  0  0  0  0  0  0
   91.7302   98.7886  -45.0493 C   0  0  0  1  0  4  0  0  0  0  0  0
   91.7675   92.3507  -49.8405 C   0  0  0  1  0  3  0  0  0  0  0  0
   91.5486   93.7151  -51.8624 C   0  0  0  1  0  4  0  0  0  0  0  0
   93.0135   93.3628  -52.1457 C   0  0  0  1  0  4  0  0  0  0  0  0
   91.5186   95.0904  -51.1825 C   0  0  0  1  0  4  0  0  0  0  0  0
   90.7555   93.7106  -53.1750 C   0  0  0  1  0  4  0  0  0  0  0  0
   90.6489   96.8591  -42.6002 O   0  0  0  1  0  2  0  0  0  0  0  0
   91.0972   92.6542  -50.9776 O   0  0  0  1  0  2  0  0  0  0  0  0
   92.7811   92.8809  -49.4110 O   0  0  0  1  0  1  0  0  0  0  0  0
   91.8884   94.4097  -40.9004 I   0  0  0  1  0  1  0  0  0  0  0  0
   91.0592   89.8353  -47.7401 H   0  0  0  1  0  1  0  0  0  0  0  0
   92.7050   90.4445  -48.1187 H   0  0  0  1  0  1  0  0  0  0  0  0
   90.3510   90.8778  -49.6852 H   0  0  0  1  0  1  0  0  0  0  0  0
   90.4464   98.1258  -43.6005 H   0  0  0  1  0  1  0  0  0  0  0  0
   90.9232   96.6382  -41.7172 H   0  0  0  1  0  1  0  0  0  0  0  0
   92.0220   92.5575  -43.4340 H   0  0  0  1  0  1  0  0  0  0  0  0
   90.2035   97.2734  -46.3890 H   0  0  0  1  0  1  0  0  0  0  0  0
   88.8083   97.1030  -45.2684 H   0  0  0  1  0  1  0  0  0  0  0  0
   92.1891  102.0360  -42.9936 H   0  0  0  1  0  1  0  0  0  0  0  0
   88.3986   99.1418  -44.2462 H   0  0  0  1  0  1  0  0  0  0  0  0
   89.2377   99.8072  -45.6887 H   0  0  0  1  0  1  0  0  0  0  0  0
   90.4485   94.9112  -46.6968 H   0  0  0  1  0  1  0  0  0  0  0  0
   90.0344  100.3492  -42.7730 H   0  0  0  1  0  1  0  0  0  0  0  0
   89.1257  101.4823  -43.8309 H   0  0  0  1  0  1  0  0  0  0  0  0
   91.0019  101.3066  -45.5278 H   0  0  0  1  0  1  0  0  0  0  0  0
   92.2970  103.4502  -45.5574 H   0  0  0  1  0  1  0  0  0  0  0  0
   93.6150  102.5877  -44.6930 H   0  0  0  1  0  1  0  0  0  0  0  0
   92.1339  105.0783  -43.7017 H   0  0  0  1  0  1  0  0  0  0  0  0
   93.8021  105.0333  -44.3683 H   0  0  0  1  0  1  0  0  0  0  0  0
   93.4318  104.2074  -42.8163 H   0  0  0  1  0  1  0  0  0  0  0  0
   91.1876  103.9763  -42.4057 H   0  0  0  1  0  1  0  0  0  0  0  0
   89.9539  102.6738  -42.5149 H   0  0  0  1  0  1  0  0  0  0  0  0
   89.2744  103.5177  -44.7411 H   0  0  0  1  0  1  0  0  0  0  0  0
   90.4925  104.8311  -44.6069 H   0  0  0  1  0  1  0  0  0  0  0  0
   89.1069  104.7718  -43.4656 H   0  0  0  1  0  1  0  0  0  0  0  0
   92.3695   99.7735  -43.2373 H   0  0  0  1  0  1  0  0  0  0  0  0
   93.1872  100.3506  -44.7295 H   0  0  0  1  0  1  0  0  0  0  0  0
   91.6779   99.0227  -46.1232 H   0  0  0  1  0  1  0  0  0  0  0  0
   92.4345   97.9594  -44.8882 H   0  0  0  1  0  1  0  0  0  0  0  0
   93.4524   94.1240  -52.8064 H   0  0  0  1  0  1  0  0  0  0  0  0
   93.0668   92.3798  -52.6346 H   0  0  0  1  0  1  0  0  0  0  0  0
   93.5727   93.3329  -51.1998 H   0  0  0  1  0  1  0  0  0  0  0  0
   92.1756   95.0775  -50.3003 H   0  0  0  1  0  1  0  0  0  0  0  0
   90.4897   95.3229  -50.8691 H   0  0  0  1  0  1  0  0  0  0  0  0
   91.8674   95.8566  -51.8894 H   0  0  0  1  0  1  0  0  0  0  0  0
   90.9074   92.7511  -53.6917 H   0  0  0  1  0  1  0  0  0  0  0  0
   91.1046   94.5321  -53.8171 H   0  0  0  1  0  1  0  0  0  0  0  0
   89.6851   93.8442  -52.9566 H   0  0  0  1  0  1  0  0  0  0  0  0
  1  7  1  0  0  0  0
  1 23  1  0  0  0  0
  1 34  1  0  0  0  0
  2 10  1  0  0  0  0
  2 11  1  0  0  0  0
  2 22  1  0  0  0  0
  2 35  1  0  0  0  0
  3 16  1  0  0  0  0
  3 17  1  0  0  0  0
  3 19  1  0  0  0  0
  3 40  1  0  0  0  0
  4  5  1  0  0  0  0
  4  9  2  0  0  0  0
  4 12  1  0  0  0  0
  5  6  3  0  0  0  0
  6  7  1  0  0  0  0
  7 32  1  0  0  0  0
  7 33  1  0  0  0  0
  8 10  1  0  0  0  0
  8 12  2  0  0  0  0
  8 14  1  0  0  0  0
  9 13  1  0  0  0  0
  9 37  1  0  0  0  0
 10 38  1  0  0  0  0
 10 39  1  0  0  0  0
 11 15  1  0  0  0  0
 11 41  1  0  0  0  0
 11 42  1  0  0  0  0
 12 43  1  0  0  0  0
 13 14  2  0  0  0  0
 13 31  1  0  0  0  0
 14 28  1  0  0  0  0
 15 16  1  0  0  0  0
 15 44  1  0  0  0  0
 15 45  1  0  0  0  0
 16 21  1  0  0  0  0
 16 46  1  0  0  0  0
 17 18  1  0  0  0  0
 17 47  1  0  0  0  0
 17 48  1  0  0  0  0
 18 49  1  0  0  0  0
 18 50  1  0  0  0  0
 18 51  1  0  0  0  0
 19 20  1  0  0  0  0
 19 52  1  0  0  0  0
 19 53  1  0  0  0  0
 20 54  1  0  0  0  0
 20 55  1  0  0  0  0
 20 56  1  0  0  0  0
 21 22  1  0  0  0  0
 21 57  1  0  0  0  0
 21 58  1  0  0  0  0
 22 59  1  0  0  0  0
 22 60  1  0  0  0  0
 23 29  1  0  0  0  0
 23 30  2  0  0  0  0
 24 25  1  0  0  0  0
 24 26  1  0  0  0  0
 24 27  1  0  0  0  0
 24 29  1  0  0  0  0
 25 61  1  0  0  0  0
 25 62  1  0  0  0  0
 25 63  1  0  0  0  0
 26 64  1  0  0  0  0
 26 65  1  0  0  0  0
 26 66  1  0  0  0  0
 27 67  1  0  0  0  0
 27 68  1  0  0  0  0
 27 69  1  0  0  0  0
 28 36  1  0  0  0  0
M  END
> <ConfScore>
-0.646735 

$$$$
4ago


 69 70  0  0  0  0  0  0  0  0999 V2000
   91.1554   91.2821  -49.2504 N   0  0  0  1  0  3  0  0  0  0  0  0
   90.3683   98.3703  -44.5750 N   0  3  0  1  0  4  0  0  0  0  0  0
   91.6630  102.3994  -43.7717 N   0  3  0  1  0  4  0  0  0  0  0  0
   91.2337   93.6144  -45.1525 C   0  0  0  1  0  3  0  0  0  0  0  0
   91.3933   92.5817  -46.1220 C   0  0  0  1  0  2  0  0  0  0  0  0
   91.5051   91.7512  -46.9740 C   0  0  0  1  0  2  0  0  0  0  0  0
   91.6473   90.7242  -48.0102 C   0  0  0  1  0  4  0  0  0  0  0  0
   90.5014   95.8938  -44.7858 C   0  0  0  1  0  3  0  0  0  0  0  0
   91.5924   93.4805  -43.8084 C   0  0  0  1  0  3  0  0  0  0  0  0
   89.9050   97.1660  -45.3350 C   0  0  0  1  0  4  0  0  0  0  0  0
   89.3636   99.4899  -44.6430 C   0  0  0  1  0  4  0  0  0  0  0  0
   90.7019   94.8197  -45.6475 C   0  0  0  1  0  3  0  0  0  0  0  0
   91.3808   94.5707  -42.9650 C   0  0  0  1  0  3  0  0  0  0  0  0
   90.8444   95.7888  -43.4150 C   0  0  0  1  0  3  0  0  0  0  0  0
   89.8603  100.6634  -43.8128 C   0  0  0  1  0  4  0  0  0  0  0  0
   91.1701  101.1115  -44.4579 C   0  0  0  1  0  4  0  0  0  0  0  0
   92.7051  103.1940  -44.5686 C   0  0  0  1  0  4  0  0  0  0  0  0
   93.6928  102.2260  -45.1936 C   0  0  0  1  0  4  0  0  0  0  0  0
   90.6449  103.3065  -43.0904 C   0  0  0  1  0  4  0  0  0  0  0  0
   89.8222  104.1670  -44.0419 C   0  0  0  1  0  4  0  0  0  0  0  0
   92.2311  100.0135  -44.3015 C   0  0  0  1  0  4  0  0  0  0  0  0
   91.7302   98.7886  -45.0493 C   0  0  0  1  0  4  0  0  0  0  0  0
   91.7675   92.3507  -49.8405 C   0  0  0  1  0  3  0  0  0  0  0  0
   91.5486   93.7151  -51.8624 C   0  0  0  1  0  4  0  0  0  0  0  0
   93.0135   93.3628  -52.1457 C   0  0  0  1  0  4  0  0  0  0  0  0
   91.5186   95.0904  -51.1825 C   0  0  0  1  0  4  0  0  0  0  0  0
   90.7555   93.7106  -53.1750 C   0  0  0  1  0  4  0  0  0  0  0  0
   90.6489   96.8591  -42.6002 O   0  0  0  1  0  2  0  0  0  0  0  0
   91.0972   92.6542  -50.9776 O   0  0  0  1  0  2  0  0  0  0  0  0
   92.7811   92.8809  -49.4110 O   0  0  0  1  0  1  0  0  0  0  0  0
   91.8884   94.4097  -40.9004 I   0  0  0  1  0  1  0  0  0  0  0  0
   91.0592   89.8353  -47.7401 H   0  0  0  1  0  1  0  0  0  0  0  0
   92.7050   90.4445  -48.1187 H   0  0  0  1  0  1  0  0  0  0  0  0
   90.3510   90.8778  -49.6852 H   0  0  0  1  0  1  0  0  0  0  0  0
   90.4464   98.1258  -43.6005 H   0  0  0  1  0  1  0  0  0  0  0  0
   90.9232   96.6382  -41.7172 H   0  0  0  1  0  1  0  0  0  0  0  0
   92.0220   92.5575  -43.4340 H   0  0  0  1  0  1  0  0  0  0  0  0
   90.2035   97.2734  -46.3890 H   0  0  0  1  0  1  0  0  0  0  0  0
   88.8083   97.1030  -45.2684 H   0  0  0  1  0  1  0  0  0  0  0  0
   92.1891  102.0360  -42.9936 H   0  0  0  1  0  1  0  0  0  0  0  0
   88.3986   99.1418  -44.2462 H   0  0  0  1  0  1  0  0  0  0  0  0
   89.2377   99.8072  -45.6887 H   0  0  0  1  0  1  0  0  0  0  0  0
   90.4485   94.9112  -46.6968 H   0  0  0  1  0  1  0  0  0  0  0  0
   90.0344  100.3492  -42.7730 H   0  0  0  1  0  1  0  0  0  0  0  0
   89.1257  101.4823  -43.8309 H   0  0  0  1  0  1  0  0  0  0  0  0
   91.0019  101.3066  -45.5278 H   0  0  0  1  0  1  0  0  0  0  0  0
   93.2382  103.8820  -43.8962 H   0  0  0  1  0  1  0  0  0  0  0  0
   92.2029  103.7703  -45.3603 H   0  0  0  1  0  1  0  0  0  0  0  0
   94.2054  101.6613  -44.4001 H   0  0  0  1  0  1  0  0  0  0  0  0
   94.4338  102.7870  -45.7822 H   0  0  0  1  0  1  0  0  0  0  0  0
   93.1548  101.5270  -45.8511 H   0  0  0  1  0  1  0  0  0  0  0  0
   91.1876  103.9763  -42.4057 H   0  0  0  1  0  1  0  0  0  0  0  0
   89.9539  102.6738  -42.5149 H   0  0  0  1  0  1  0  0  0  0  0  0
   89.2744  103.5177  -44.7411 H   0  0  0  1  0  1  0  0  0  0  0  0
   90.4925  104.8311  -44.6069 H   0  0  0  1  0  1  0  0  0  0  0  0
   89.1069  104.7718  -43.4656 H   0  0  0  1  0  1  0  0  0  0  0  0
   92.3695   99.7735  -43.2373 H   0  0  0  1  0  1  0  0  0  0  0  0
   93.1872  100.3506  -44.7295 H   0  0  0  1  0  1  0  0  0  0  0  0
   91.6779   99.0227  -46.1232 H   0  0  0  1  0  1  0  0  0  0  0  0
   92.4345   97.9594  -44.8882 H   0  0  0  1  0  1  0  0  0  0  0  0
   93.4524   94.1240  -52.8064 H   0  0  0  1  0  1  0  0  0  0  0  0
   93.0668   92.3798  -52.6346 H   0  0  0  1  0  1  0  0  0  0  0  0
   93.5727   93.3329  -51.1998 H   0  0  0  1  0  1  0  0  0  0  0  0
   92.1756   95.0775  -50.3003 H   0  0  0  1  0  1  0  0  0  0  0  0
   90.4897   95.3229  -50.8691 H   0  0  0  1  0  1  0  0  0  0  0  0
   91.8674   95.8566  -51.8894 H   0  0  0  1  0  1  0  0  0  0  0  0
   90.9074   92.7511  -53.6917 H   0  0  0  1  0  1  0  0  0  0  0  0
   91.1046   94.5321  -53.8171 H   0  0  0  1  0  1  0  0  0  0  0  0
   89.6851   93.8442  -52.9566 H   0  0  0  1  0  1  0  0  0  0  0  0
  1  7  1  0  0  0  0
  1 23  1  0  0  0  0
  1 34  1  0  0  0  0
  2 10  1  0  0  0  0
  2 11  1  0  0  0  0
  2 22  1  0  0  0  0
  2 35  1  0  0  0  0
  3 16  1  0  0  0  0
  3 17  1  0  0  0  0
  3 19  1  0  0  0  0
  3 40  1  0  0  0  0
  4  5  1  0  0  0  0
  4  9  2  0  0  0  0
  4 12  1  0  0  0  0
  5  6  3  0  0  0  0
  6  7  1  0  0  0  0
  7 32  1  0  0  0  0
  7 33  1  0  0  0  0
  8 10  1  0  0  0  0
  8 12  2  0  0  0  0
  8 14  1  0  0  0  0
  9 13  1  0  0  0  0
  9 37  1  0  0  0  0
 10 38  1  0  0  0  0
 10 39  1  0  0  0  0
 11 15  1  0  0  0  0
 11 41  1  0  0  0  0
 11 42  1  0  0  0  0
 12 43  1  0  0  0  0
 13 14  2  0  0  0  0
 13 31  1  0  0  0  0
 14 28  1  0  0  0  0
 15 16  1  0  0  0  0
 15 44  1  0  0  0  0
 15 45  1  0  0  0  0
 16 21  1  0  0  0  0
 16 46  1  0  0  0  0
 17 18  1  0  0  0  0
 17 47  1  0  0  0  0
 17 48  1  0  0  0  0
 18 49  1  0  0  0  0
 18 50  1  0  0  0  0
 18 51  1  0  0  0  0
 19 20  1  0  0  0  0
 19 52  1  0  0  0  0
 19 53  1  0  0  0  0
 20 54  1  0  0  0  0
 20 55  1  0  0  0  0
 20 56  1  0  0  0  0
 21 22  1  0  0  0  0
 21 57  1  0  0  0  0
 21 58  1  0  0  0  0
 22 59  1  0  0  0  0
 22 60  1  0  0  0  0
 23 29  1  0  0  0  0
 23 30  2  0  0  0  0
 24 25  1  0  0  0  0
 24 26  1  0  0  0  0
 24 27  1  0  0  0  0
 24 29  1  0  0  0  0
 25 61  1  0  0  0  0
 25 62  1  0  0  0  0
 25 63  1  0  0  0  0
 26 64  1  0  0  0  0
 26 65  1  0  0  0  0
 26 66  1  0  0  0  0
 27 67  1  0  0  0  0
 27 68  1  0  0  0  0
 27 69  1  0  0  0  0
 28 36  1  0  0  0  0
M  END
> <ConfScore>
-0.643935 

$$$$
4ago


 69 70  0  0  0  0  0  0  0  0999 V2000
  123.9790  100.2820  -49.2222 N   0  0  0  1  0  3  0  0  0  0  0  0
  124.4876  107.3549  -45.9165 N   0  3  0  1  0  4  0  0  0  0  0  0
  126.8999  109.8636  -48.4376 N   0  3  0  1  0  4  0  0  0  0  0  0
  124.4410  102.8420  -45.2570 C   0  0  0  1  0  3  0  0  0  0  0  0
  124.5030  101.8040  -46.2320 C   0  0  0  1  0  2  0  0  0  0  0  0
  124.6100  100.9470  -47.0580 C   0  0  0  1  0  2  0  0  0  0  0  0
  124.7490   99.8890  -48.0630 C   0  0  0  1  0  4  0  0  0  0  0  0
  123.8990  105.1710  -44.8720 C   0  0  0  1  0  3  0  0  0  0  0  0
  124.8080  102.6740  -43.9190 C   0  0  0  1  0  3  0  0  0  0  0  0
  123.4000  106.4840  -45.4060 C   0  0  0  1  0  4  0  0  0  0  0  0
  123.9383  108.6901  -46.3286 C   0  0  0  1  0  4  0  0  0  0  0  0
  124.0000  104.0880  -45.7400 C   0  0  0  1  0  3  0  0  0  0  0  0
  124.6970  103.7740  -43.0690 C   0  0  0  1  0  3  0  0  0  0  0  0
  124.2530  105.0330  -43.5070 C   0  0  0  1  0  3  0  0  0  0  0  0
  125.1046  109.5763  -46.7288 C   0  0  0  1  0  4  0  0  0  0  0  0
  125.7873  108.9302  -47.9245 C   0  0  0  1  0  4  0  0  0  0  0  0
  127.9669  109.1782  -49.3001 C   0  0  0  1  0  4  0  0  0  0  0  0
  127.3484  108.7790  -50.6272 C   0  0  0  1  0  4  0  0  0  0  0  0
  126.5179  111.2369  -48.9776 C   0  0  0  1  0  4  0  0  0  0  0  0
  125.6365  112.0633  -48.0487 C   0  0  0  1  0  4  0  0  0  0  0  0
  126.3717  107.5691  -47.5012 C   0  0  0  1  0  4  0  0  0  0  0  0
  125.2297  106.6884  -47.0318 C   0  0  0  1  0  4  0  0  0  0  0  0
  123.8932   99.4789  -50.3233 C   0  0  0  1  0  3  0  0  0  0  0  0
  122.8522   99.4930  -52.5401 C   0  0  0  1  0  4  0  0  0  0  0  0
  121.9471  100.5099  -53.2451 C   0  0  0  1  0  4  0  0  0  0  0  0
  122.0755   98.1750  -52.4211 C   0  0  0  1  0  4  0  0  0  0  0  0
  124.1502   99.3197  -53.3382 C   0  0  0  1  0  4  0  0  0  0  0  0
  124.1560  106.1120  -42.6860 O   0  0  0  1  0  2  0  0  0  0  0  0
  123.1144  100.0958  -51.2439 O   0  0  0  1  0  2  0  0  0  0  0  0
  124.4034   98.3715  -50.4033 O   0  0  0  1  0  1  0  0  0  0  0  0
  125.2210  103.5640  -41.0130 I   0  0  0  1  0  1  0  0  0  0  0  0
  124.3655   98.9394  -47.6630 H   0  0  0  1  0  1  0  0  0  0  0  0
  125.8066   99.7698  -48.3385 H   0  0  0  1  0  1  0  0  0  0  0  0
  123.4995  101.1593  -49.2182 H   0  0  0  1  0  1  0  0  0  0  0  0
  125.1402  107.5097  -45.1645 H   0  0  0  1  0  1  0  0  0  0  0  0
  124.4250  105.8660  -41.8080 H   0  0  0  1  0  1  0  0  0  0  0  0
  125.1680  101.7180  -43.5540 H   0  0  0  1  0  1  0  0  0  0  0  0
  122.8751  107.0148  -44.5971 H   0  0  0  1  0  1  0  0  0  0  0  0
  122.6972  106.2833  -46.2287 H   0  0  0  1  0  1  0  0  0  0  0  0
  127.3932  110.0902  -47.5894 H   0  0  0  1  0  1  0  0  0  0  0  0
  123.3958  109.1463  -45.4874 H   0  0  0  1  0  1  0  0  0  0  0  0
  123.2557  108.5652  -47.1822 H   0  0  0  1  0  1  0  0  0  0  0  0
  123.7390  104.2040  -46.7850 H   0  0  0  1  0  1  0  0  0  0  0  0
  125.8145  109.6612  -45.8927 H   0  0  0  1  0  1  0  0  0  0  0  0
  124.7378  110.5771  -47.0014 H   0  0  0  1  0  1  0  0  0  0  0  0
  125.0498  108.7714  -48.7257 H   0  0  0  1  0  1  0  0  0  0  0  0
  128.3402  108.2820  -48.7829 H   0  0  0  1  0  1  0  0  0  0  0  0
  128.8010  109.8740  -49.4769 H   0  0  0  1  0  1  0  0  0  0  0  0
  126.9590  109.6745  -51.1348 H   0  0  0  1  0  1  0  0  0  0  0  0
  126.5256  108.0706  -50.4502 H   0  0  0  1  0  1  0  0  0  0  0  0
  128.1128  108.3033  -51.2595 H   0  0  0  1  0  1  0  0  0  0  0  0
  125.9761  111.0933  -49.9252 H   0  0  0  1  0  1  0  0  0  0  0  0
  127.4431  111.8005  -49.1649 H   0  0  0  1  0  1  0  0  0  0  0  0
  126.1562  112.2149  -47.0908 H   0  0  0  1  0  1  0  0  0  0  0  0
  124.6905  111.5309  -47.8722 H   0  0  0  1  0  1  0  0  0  0  0  0
  125.4277  113.0390  -48.5113 H   0  0  0  1  0  1  0  0  0  0  0  0
  127.0926  107.7115  -46.6831 H   0  0  0  1  0  1  0  0  0  0  0  0
  126.8783  107.0988  -48.3574 H   0  0  0  1  0  1  0  0  0  0  0  0
  124.5404  106.5088  -47.8706 H   0  0  0  1  0  1  0  0  0  0  0  0
  125.6334  105.7289  -46.6769 H   0  0  0  1  0  1  0  0  0  0  0  0
  121.6903  100.1389  -54.2476 H   0  0  0  1  0  1  0  0  0  0  0  0
  122.4740  101.4704  -53.3345 H   0  0  0  1  0  1  0  0  0  0  0  0
  121.0271  100.6493  -52.6597 H   0  0  0  1  0  1  0  0  0  0  0  0
  121.1097   98.3619  -51.9287 H   0  0  0  1  0  1  0  0  0  0  0  0
  122.6581   97.4579  -51.8235 H   0  0  0  1  0  1  0  0  0  0  0  0
  121.9023   97.7596  -53.4240 H   0  0  0  1  0  1  0  0  0  0  0  0
  124.6094  100.3049  -53.5095 H   0  0  0  1  0  1  0  0  0  0  0  0
  123.9258   98.8467  -54.3051 H   0  0  0  1  0  1  0  0  0  0  0  0
  124.8468   98.6839  -52.7710 H   0  0  0  1  0  1  0  0  0  0  0  0
  1  7  1  0  0  0  0
  1 23  1  0  0  0  0
  1 34  1  0  0  0  0
  2 10  1  0  0  0  0
  2 11  1  0  0  0  0
  2 22  1  0  0  0  0
  2 35  1  0  0  0  0
  3 16  1  0  0  0  0
  3 17  1  0  0  0  0
  3 19  1  0  0  0  0
  3 40  1  0  0  0  0
  4  5  1  0  0  0  0
  4  9  2  0  0  0  0
  4 12  1  0  0  0  0
  5  6  3  0  0  0  0
  6  7  1  0  0  0  0
  7 32  1  0  0  0  0
  7 33  1  0  0  0  0
  8 10  1  0  0  0  0
  8 12  2  0  0  0  0
  8 14  1  0  0  0  0
  9 13  1  0  0  0  0
  9 37  1  0  0  0  0
 10 38  1  0  0  0  0
 10 39  1  0  0  0  0
 11 15  1  0  0  0  0
 11 41  1  0  0  0  0
 11 42  1  0  0  0  0
 12 43  1  0  0  0  0
 13 14  2  0  0  0  0
 13 31  1  0  0  0  0
 14 28  1  0  0  0  0
 15 16  1  0  0  0  0
 15 44  1  0  0  0  0
 15 45  1  0  0  0  0
 16 21  1  0  0  0  0
 16 46  1  0  0  0  0
 17 18  1  0  0  0  0
 17 47  1  0  0  0  0
 17 48  1  0  0  0  0
 18 49  1  0  0  0  0
 18 50  1  0  0  0  0
 18 51  1  0  0  0  0
 19 20  1  0  0  0  0
 19 52  1  0  0  0  0
 19 53  1  0  0  0  0
 20 54  1  0  0  0  0
 20 55  1  0  0  0  0
 20 56  1  0  0  0  0
 21 22  1  0  0  0  0
 21 57  1  0  0  0  0
 21 58  1  0  0  0  0
 22 59  1  0  0  0  0
 22 60  1  0  0  0  0
 23 29  1  0  0  0  0
 23 30  2  0  0  0  0
 24 25  1  0  0  0  0
 24 26  1  0  0  0  0
 24 27  1  0  0  0  0
 24 29  1  0  0  0  0
 25 61  1  0  0  0  0
 25 62  1  0  0  0  0
 25 63  1  0  0  0  0
 26 64  1  0  0  0  0
 26 65  1  0  0  0  0
 26 66  1  0  0  0  0
 27 67  1  0  0  0  0
 27 68  1  0  0  0  0
 27 69  1  0  0  0  0
 28 36  1  0  0  0  0
M  END
> <ConfScore>
-0.637874 

$$$$
4ago


 69 70  0  0  0  0  0  0  0  0999 V2000
  123.9790  100.2820  -49.2222 N   0  0  0  1  0  3  0  0  0  0  0  0
  124.4876  107.3549  -45.9165 N   0  3  0  1  0  4  0  0  0  0  0  0
  126.8999  109.8636  -48.4376 N   0  3  0  1  0  4  0  0  0  0  0  0
  124.4410  102.8420  -45.2570 C   0  0  0  1  0  3  0  0  0  0  0  0
  124.5030  101.8040  -46.2320 C   0  0  0  1  0  2  0  0  0  0  0  0
  124.6100  100.9470  -47.0580 C   0  0  0  1  0  2  0  0  0  0  0  0
  124.7490   99.8890  -48.0630 C   0  0  0  1  0  4  0  0  0  0  0  0
  123.8990  105.1710  -44.8720 C   0  0  0  1  0  3  0  0  0  0  0  0
  124.8080  102.6740  -43.9190 C   0  0  0  1  0  3  0  0  0  0  0  0
  123.4000  106.4840  -45.4060 C   0  0  0  1  0  4  0  0  0  0  0  0
  123.9383  108.6901  -46.3286 C   0  0  0  1  0  4  0  0  0  0  0  0
  124.0000  104.0880  -45.7400 C   0  0  0  1  0  3  0  0  0  0  0  0
  124.6970  103.7740  -43.0690 C   0  0  0  1  0  3  0  0  0  0  0  0
  124.2530  105.0330  -43.5070 C   0  0  0  1  0  3  0  0  0  0  0  0
  125.1046  109.5763  -46.7288 C   0  0  0  1  0  4  0  0  0  0  0  0
  125.7873  108.9302  -47.9245 C   0  0  0  1  0  4  0  0  0  0  0  0
  127.9669  109.1782  -49.3001 C   0  0  0  1  0  4  0  0  0  0  0  0
  127.3484  108.7790  -50.6272 C   0  0  0  1  0  4  0  0  0  0  0  0
  126.5179  111.2369  -48.9776 C   0  0  0  1  0  4  0  0  0  0  0  0
  125.6365  112.0633  -48.0487 C   0  0  0  1  0  4  0  0  0  0  0  0
  126.3717  107.5691  -47.5012 C   0  0  0  1  0  4  0  0  0  0  0  0
  125.2297  106.6884  -47.0318 C   0  0  0  1  0  4  0  0  0  0  0  0
  123.8932   99.4789  -50.3233 C   0  0  0  1  0  3  0  0  0  0  0  0
  122.7849   99.4572  -52.5072 C   0  0  0  1  0  4  0  0  0  0  0  0
  122.0059   98.2025  -52.0957 C   0  0  0  1  0  4  0  0  0  0  0  0
  124.0355   99.0045  -53.2726 C   0  0  0  1  0  4  0  0  0  0  0  0
  121.8889  100.3612  -53.3626 C   0  0  0  1  0  4  0  0  0  0  0  0
  124.1560  106.1120  -42.6860 O   0  0  0  1  0  2  0  0  0  0  0  0
  123.1144  100.0958  -51.2439 O   0  0  0  1  0  2  0  0  0  0  0  0
  124.4034   98.3715  -50.4033 O   0  0  0  1  0  1  0  0  0  0  0  0
  125.2210  103.5640  -41.0130 I   0  0  0  1  0  1  0  0  0  0  0  0
  124.3655   98.9394  -47.6630 H   0  0  0  1  0  1  0  0  0  0  0  0
  125.8066   99.7698  -48.3385 H   0  0  0  1  0  1  0  0  0  0  0  0
  123.4995  101.1593  -49.2182 H   0  0  0  1  0  1  0  0  0  0  0  0
  125.1402  107.5097  -45.1645 H   0  0  0  1  0  1  0  0  0  0  0  0
  124.4250  105.8660  -41.8080 H   0  0  0  1  0  1  0  0  0  0  0  0
  125.1680  101.7180  -43.5540 H   0  0  0  1  0  1  0  0  0  0  0  0
  122.8751  107.0148  -44.5971 H   0  0  0  1  0  1  0  0  0  0  0  0
  122.6972  106.2833  -46.2287 H   0  0  0  1  0  1  0  0  0  0  0  0
  127.3932  110.0902  -47.5894 H   0  0  0  1  0  1  0  0  0  0  0  0
  123.3958  109.1463  -45.4874 H   0  0  0  1  0  1  0  0  0  0  0  0
  123.2557  108.5652  -47.1822 H   0  0  0  1  0  1  0  0  0  0  0  0
  123.7390  104.2040  -46.7850 H   0  0  0  1  0  1  0  0  0  0  0  0
  125.8145  109.6612  -45.8927 H   0  0  0  1  0  1  0  0  0  0  0  0
  124.7378  110.5771  -47.0014 H   0  0  0  1  0  1  0  0  0  0  0  0
  125.0498  108.7714  -48.7257 H   0  0  0  1  0  1  0  0  0  0  0  0
  128.3402  108.2820  -48.7829 H   0  0  0  1  0  1  0  0  0  0  0  0
  128.8010  109.8740  -49.4769 H   0  0  0  1  0  1  0  0  0  0  0  0
  126.9590  109.6745  -51.1348 H   0  0  0  1  0  1  0  0  0  0  0  0
  126.5256  108.0706  -50.4502 H   0  0  0  1  0  1  0  0  0  0  0  0
  128.1128  108.3033  -51.2595 H   0  0  0  1  0  1  0  0  0  0  0  0
  125.9761  111.0933  -49.9252 H   0  0  0  1  0  1  0  0  0  0  0  0
  127.4431  111.8005  -49.1649 H   0  0  0  1  0  1  0  0  0  0  0  0
  126.1562  112.2149  -47.0908 H   0  0  0  1  0  1  0  0  0  0  0  0
  124.6905  111.5309  -47.8722 H   0  0  0  1  0  1  0  0  0  0  0  0
  125.4277  113.0390  -48.5113 H   0  0  0  1  0  1  0  0  0  0  0  0
  127.0926  107.7115  -46.6831 H   0  0  0  1  0  1  0  0  0  0  0  0
  126.8783  107.0988  -48.3574 H   0  0  0  1  0  1  0  0  0  0  0  0
  124.5404  106.5088  -47.8706 H   0  0  0  1  0  1  0  0  0  0  0  0
  125.6334  105.7289  -46.6769 H   0  0  0  1  0  1  0  0  0  0  0  0
  121.7086   97.6443  -52.9949 H   0  0  0  1  0  1  0  0  0  0  0  0
  121.1079   98.4957  -51.5337 H   0  0  0  1  0  1  0  0  0  0  0  0
  122.6426   97.5667  -51.4641 H   0  0  0  1  0  1  0  0  0  0  0  0
  124.5985   98.2839  -52.6612 H   0  0  0  1  0  1  0  0  0  0  0  0
  124.6706   99.8770  -53.4874 H   0  0  0  1  0  1  0  0  0  0  0  0
  123.7351   98.5294  -54.2173 H   0  0  0  1  0  1  0  0  0  0  0  0
  120.9482  100.5576  -52.8269 H   0  0  0  1  0  1  0  0  0  0  0  0
  121.6697   99.8622  -54.3176 H   0  0  0  1  0  1  0  0  0  0  0  0
  122.4068  101.3130  -53.5557 H   0  0  0  1  0  1  0  0  0  0  0  0
  1  7  1  0  0  0  0
  1 23  1  0  0  0  0
  1 34  1  0  0  0  0
  2 10  1  0  0  0  0
  2 11  1  0  0  0  0
  2 22  1  0  0  0  0
  2 35  1  0  0  0  0
  3 16  1  0  0  0  0
  3 17  1  0  0  0  0
  3 19  1  0  0  0  0
  3 40  1  0  0  0  0
  4  5  1  0  0  0  0
  4  9  2  0  0  0  0
  4 12  1  0  0  0  0
  5  6  3  0  0  0  0
  6  7  1  0  0  0  0
  7 32  1  0  0  0  0
  7 33  1  0  0  0  0
  8 10  1  0  0  0  0
  8 12  2  0  0  0  0
  8 14  1  0  0  0  0
  9 13  1  0  0  0  0
  9 37  1  0  0  0  0
 10 38  1  0  0  0  0
 10 39  1  0  0  0  0
 11 15  1  0  0  0  0
 11 41  1  0  0  0  0
 11 42  1  0  0  0  0
 12 43  1  0  0  0  0
 13 14  2  0  0  0  0
 13 31  1  0  0  0  0
 14 28  1  0  0  0  0
 15 16  1  0  0  0  0
 15 44  1  0  0  0  0
 15 45  1  0  0  0  0
 16 21  1  0  0  0  0
 16 46  1  0  0  0  0
 17 18  1  0  0  0  0
 17 47  1  0  0  0  0
 17 48  1  0  0  0  0
 18 49  1  0  0  0  0
 18 50  1  0  0  0  0
 18 51  1  0  0  0  0
 19 20  1  0  0  0  0
 19 52  1  0  0  0  0
 19 53  1  0  0  0  0
 20 54  1  0  0  0  0
 20 55  1  0  0  0  0
 20 56  1  0  0  0  0
 21 22  1  0  0  0  0
 21 57  1  0  0  0  0
 21 58  1  0  0  0  0
 22 59  1  0  0  0  0
 22 60  1  0  0  0  0
 23 29  1  0  0  0  0
 23 30  2  0  0  0  0
 24 25  1  0  0  0  0
 24 26  1  0  0  0  0
 24 27  1  0  0  0  0
 24 29  1  0  0  0  0
 25 61  1  0  0  0  0
 25 62  1  0  0  0  0
 25 63  1  0  0  0  0
 26 64  1  0  0  0  0
 26 65  1  0  0  0  0
 26 66  1  0  0  0  0
 27 67  1  0  0  0  0
 27 68  1  0  0  0  0
 27 69  1  0  0  0  0
 28 36  1  0  0  0  0
M  END
> <ConfScore>
-0.637874 

$$$$
4ago


 69 70  0  0  0  0  0  0  0  0999 V2000
   91.1554   91.2821  -49.2504 N   0  0  0  1  0  3  0  0  0  0  0  0
   90.3795   98.3716  -44.5841 N   0  3  0  1  0  4  0  0  0  0  0  0
   91.6965  102.3990  -43.8088 N   0  3  0  1  0  4  0  0  0  0  0  0
   91.2337   93.6144  -45.1525 C   0  0  0  1  0  3  0  0  0  0  0  0
   91.3933   92.5817  -46.1220 C   0  0  0  1  0  2  0  0  0  0  0  0
   91.5051   91.7512  -46.9740 C   0  0  0  1  0  2  0  0  0  0  0  0
   91.6473   90.7242  -48.0102 C   0  0  0  1  0  4  0  0  0  0  0  0
   90.5014   95.8938  -44.7858 C   0  0  0  1  0  3  0  0  0  0  0  0
   91.5924   93.4805  -43.8084 C   0  0  0  1  0  3  0  0  0  0  0  0
   89.9050   97.1660  -45.3350 C   0  0  0  1  0  4  0  0  0  0  0  0
   89.3785   99.4948  -44.6479 C   0  0  0  1  0  4  0  0  0  0  0  0
   90.7019   94.8197  -45.6475 C   0  0  0  1  0  3  0  0  0  0  0  0
   91.3808   94.5707  -42.9650 C   0  0  0  1  0  3  0  0  0  0  0  0
   90.8444   95.7888  -43.4150 C   0  0  0  1  0  3  0  0  0  0  0  0
   89.8869  100.6698  -43.8269 C   0  0  0  1  0  4  0  0  0  0  0  0
   91.1927  101.1102  -44.4854 C   0  0  0  1  0  4  0  0  0  0  0  0
   92.7344  103.1864  -44.6182 C   0  0  0  1  0  4  0  0  0  0  0  0
   93.6982  102.2107  -45.2680 C   0  0  0  1  0  4  0  0  0  0  0  0
   90.6878  103.3127  -43.1224 C   0  0  0  1  0  4  0  0  0  0  0  0
   89.6141  102.5867  -42.3205 C   0  0  0  1  0  4  0  0  0  0  0  0
   92.2508  100.0088  -44.3337 C   0  0  0  1  0  4  0  0  0  0  0  0
   91.7387   98.7828  -45.0721 C   0  0  0  1  0  4  0  0  0  0  0  0
   91.7015   90.9326  -50.4522 C   0  0  0  1  0  3  0  0  0  0  0  0
   91.3058   91.3136  -52.8389 C   0  0  0  1  0  4  0  0  0  0  0  0
   92.6860   91.9659  -52.9793 C   0  0  0  1  0  4  0  0  0  0  0  0
   90.3390   92.0523  -53.7740 C   0  0  0  1  0  4  0  0  0  0  0  0
   91.4044   89.8224  -53.1831 C   0  0  0  1  0  4  0  0  0  0  0  0
   90.6489   96.8591  -42.6002 O   0  0  0  1  0  2  0  0  0  0  0  0
   90.9687   91.5034  -51.4380 O   0  0  0  1  0  2  0  0  0  0  0  0
   92.6586   90.1832  -50.5762 O   0  0  0  1  0  1  0  0  0  0  0  0
   91.8884   94.4097  -40.9004 I   0  0  0  1  0  1  0  0  0  0  0  0
   91.0592   89.8353  -47.7401 H   0  0  0  1  0  1  0  0  0  0  0  0
   92.7050   90.4445  -48.1187 H   0  0  0  1  0  1  0  0  0  0  0  0
   90.4003   91.9370  -49.2283 H   0  0  0  1  0  1  0  0  0  0  0  0
   90.4652   98.1308  -43.6093 H   0  0  0  1  0  1  0  0  0  0  0  0
   90.9232   96.6382  -41.7172 H   0  0  0  1  0  1  0  0  0  0  0  0
   92.0220   92.5575  -43.4340 H   0  0  0  1  0  1  0  0  0  0  0  0
   90.1946   97.2679  -46.3920 H   0  0  0  1  0  1  0  0  0  0  0  0
   88.8087   97.1074  -45.2585 H   0  0  0  1  0  1  0  0  0  0  0  0
   92.2280  102.0368  -43.0340 H   0  0  0  1  0  1  0  0  0  0  0  0
   88.4157   99.1520  -44.2412 H   0  0  0  1  0  1  0  0  0  0  0  0
   89.2446   99.8083  -45.6938 H   0  0  0  1  0  1  0  0  0  0  0  0
   90.4485   94.9112  -46.6968 H   0  0  0  1  0  1  0  0  0  0  0  0
   90.0689  100.3592  -42.7874 H   0  0  0  1  0  1  0  0  0  0  0  0
   89.1553  101.4913  -43.8420 H   0  0  0  1  0  1  0  0  0  0  0  0
   91.0158  101.3016  -45.5546 H   0  0  0  1  0  1  0  0  0  0  0  0
   93.2884  103.8622  -43.9501 H   0  0  0  1  0  1  0  0  0  0  0  0
   92.2258  103.7752  -45.3964 H   0  0  0  1  0  1  0  0  0  0  0  0
   94.2048  101.6212  -44.4888 H   0  0  0  1  0  1  0  0  0  0  0  0
   94.4463  102.7676  -45.8514 H   0  0  0  1  0  1  0  0  0  0  0  0
   93.1419  101.5349  -45.9344 H   0  0  0  1  0  1  0  0  0  0  0  0
   90.1881  103.9141  -43.8974 H   0  0  0  1  0  1  0  0  0  0  0  0
   91.2368  103.9765  -42.4392 H   0  0  0  1  0  1  0  0  0  0  0  0
   90.0916  101.9733  -41.5419 H   0  0  0  1  0  1  0  0  0  0  0  0
   89.0316  101.9389  -42.9917 H   0  0  0  1  0  1  0  0  0  0  0  0
   88.9460  103.3226  -41.8497 H   0  0  0  1  0  1  0  0  0  0  0  0
   92.3977   99.7727  -43.2699 H   0  0  0  1  0  1  0  0  0  0  0  0
   93.2044  100.3405  -44.7715 H   0  0  0  1  0  1  0  0  0  0  0  0
   91.6779   99.0127  -46.1464 H   0  0  0  1  0  1  0  0  0  0  0  0
   92.4413   97.9516  -44.9137 H   0  0  0  1  0  1  0  0  0  0  0  0
   93.0263   91.8832  -54.0214 H   0  0  0  1  0  1  0  0  0  0  0  0
   93.4020   91.4560  -52.3194 H   0  0  0  1  0  1  0  0  0  0  0  0
   92.6201   93.0269  -52.6990 H   0  0  0  1  0  1  0  0  0  0  0  0
   89.3171   91.6774  -53.6150 H   0  0  0  1  0  1  0  0  0  0  0  0
   90.6341   91.8779  -54.8196 H   0  0  0  1  0  1  0  0  0  0  0  0
   90.3728   93.1298  -53.5593 H   0  0  0  1  0  1  0  0  0  0  0  0
   92.1975   89.3582  -52.5780 H   0  0  0  1  0  1  0  0  0  0  0  0
   91.6427   89.7075  -54.2504 H   0  0  0  1  0  1  0  0  0  0  0  0
   90.4431   89.3322  -52.9664 H   0  0  0  1  0  1  0  0  0  0  0  0
  1  7  1  0  0  0  0
  1 23  1  0  0  0  0
  1 34  1  0  0  0  0
  2 10  1  0  0  0  0
  2 11  1  0  0  0  0
  2 22  1  0  0  0  0
  2 35  1  0  0  0  0
  3 16  1  0  0  0  0
  3 17  1  0  0  0  0
  3 19  1  0  0  0  0
  3 40  1  0  0  0  0
  4  5  1  0  0  0  0
  4  9  2  0  0  0  0
  4 12  1  0  0  0  0
  5  6  3  0  0  0  0
  6  7  1  0  0  0  0
  7 32  1  0  0  0  0
  7 33  1  0  0  0  0
  8 10  1  0  0  0  0
  8 12  2  0  0  0  0
  8 14  1  0  0  0  0
  9 13  1  0  0  0  0
  9 37  1  0  0  0  0
 10 38  1  0  0  0  0
 10 39  1  0  0  0  0
 11 15  1  0  0  0  0
 11 41  1  0  0  0  0
 11 42  1  0  0  0  0
 12 43  1  0  0  0  0
 13 14  2  0  0  0  0
 13 31  1  0  0  0  0
 14 28  1  0  0  0  0
 15 16  1  0  0  0  0
 15 44  1  0  0  0  0
 15 45  1  0  0  0  0
 16 21  1  0  0  0  0
 16 46  1  0  0  0  0
 17 18  1  0  0  0  0
 17 47  1  0  0  0  0
 17 48  1  0  0  0  0
 18 49  1  0  0  0  0
 18 50  1  0  0  0  0
 18 51  1  0  0  0  0
 19 20  1  0  0  0  0
 19 52  1  0  0  0  0
 19 53  1  0  0  0  0
 20 54  1  0  0  0  0
 20 55  1  0  0  0  0
 20 56  1  0  0  0  0
 21 22  1  0  0  0  0
 21 57  1  0  0  0  0
 21 58  1  0  0  0  0
 22 59  1  0  0  0  0
 22 60  1  0  0  0  0
 23 29  1  0  0  0  0
 23 30  2  0  0  0  0
 24 25  1  0  0  0  0
 24 26  1  0  0  0  0
 24 27  1  0  0  0  0
 24 29  1  0  0  0  0
 25 61  1  0  0  0  0
 25 62  1  0  0  0  0
 25 63  1  0  0  0  0
 26 64  1  0  0  0  0
 26 65  1  0  0  0  0
 26 66  1  0  0  0  0
 27 67  1  0  0  0  0
 27 68  1  0  0  0  0
 27 69  1  0  0  0  0
 28 36  1  0  0  0  0
M  END
> <ConfScore>
-0.631763 

$$$$
4ago


 69 70  0  0  0  0  0  0  0  0999 V2000
    9.6672   -0.6228   35.7113 N   0  0  0  1  0  3  0  0  0  0  0  0
    6.6592    4.4112   28.4622 N   0  3  0  1  0  4  0  0  0  0  0  0
    5.1864    7.7236   29.0025 N   0  3  0  1  0  4  0  0  0  0  0  0
    8.5930    1.3120   31.5470 C   0  0  0  1  0  3  0  0  0  0  0  0
    8.4906    0.8759   32.9002 C   0  0  0  1  0  2  0  0  0  0  0  0
    8.4577    0.4891   34.0305 C   0  0  0  1  0  2  0  0  0  0  0  0
    8.4052    0.0195   35.4181 C   0  0  0  1  0  4  0  0  0  0  0  0
    7.6270    2.3630   29.6260 C   0  0  0  1  0  3  0  0  0  0  0  0
    9.7440    1.0760   30.8280 C   0  0  0  1  0  3  0  0  0  0  0  0
    6.4640    3.0610   28.9950 C   0  0  0  1  0  4  0  0  0  0  0  0
    5.4056    4.8638   27.8391 C   0  0  0  1  0  4  0  0  0  0  0  0
    7.5450    1.9700   30.9520 C   0  0  0  1  0  3  0  0  0  0  0  0
    9.8450    1.4950   29.5070 C   0  0  0  1  0  3  0  0  0  0  0  0
    8.7880    2.1430   28.9040 C   0  0  0  1  0  3  0  0  0  0  0  0
    5.6662    6.1628   27.1100 C   0  0  0  1  0  4  0  0  0  0  0  0
    6.2743    7.2314   28.0294 C   0  0  0  1  0  4  0  0  0  0  0  0
    5.6393    8.8245   29.9695 C   0  0  0  1  0  4  0  0  0  0  0  0
    7.0445    8.5126   30.4505 C   0  0  0  1  0  4  0  0  0  0  0  0
    3.7789    7.9675   28.4708 C   0  0  0  1  0  4  0  0  0  0  0  0
    3.2805    6.9180   27.4844 C   0  0  0  1  0  4  0  0  0  0  0  0
    7.4534    6.6990   28.8410 C   0  0  0  1  0  4  0  0  0  0  0  0
    7.1002    5.3731   29.4902 C   0  0  0  1  0  4  0  0  0  0  0  0
   10.2157   -0.5734   36.9609 C   0  0  0  1  0  3  0  0  0  0  0  0
   12.2086   -1.3797   38.1339 C   0  0  0  1  0  4  0  0  0  0  0  0
   11.3157   -2.1400   39.1214 C   0  0  0  1  0  4  0  0  0  0  0  0
   12.5427   -0.0169   38.7549 C   0  0  0  1  0  4  0  0  0  0  0  0
   13.4719   -2.2003   37.8461 C   0  0  0  1  0  4  0  0  0  0  0  0
    8.8845    2.5615   27.6143 O   0  0  0  1  0  2  0  0  0  0  0  0
   11.3864   -1.2543   36.9421 O   0  0  0  1  0  2  0  0  0  0  0  0
    9.6809   -0.0407   37.9217 O   0  0  0  1  0  1  0  0  0  0  0  0
   11.6378    1.1351   28.4106 I   0  0  0  1  0  1  0  0  0  0  0  0
    7.5820   -0.6992   35.5396 H   0  0  0  1  0  1  0  0  0  0  0  0
    8.2514    0.8706   36.0967 H   0  0  0  1  0  1  0  0  0  0  0  0
   10.1485   -1.1131   34.9850 H   0  0  0  1  0  1  0  0  0  0  0  0
    7.3973    4.3706   27.7773 H   0  0  0  1  0  1  0  0  0  0  0  0
    9.1378    1.8297   27.0629 H   0  0  0  1  0  1  0  0  0  0  0  0
   10.5760    0.5603   31.2955 H   0  0  0  1  0  1  0  0  0  0  0  0
    6.1212    2.4300   28.1608 H   0  0  0  1  0  1  0  0  0  0  0  0
    5.6723    3.1247   29.7568 H   0  0  0  1  0  1  0  0  0  0  0  0
    5.0600    6.9230   29.6003 H   0  0  0  1  0  1  0  0  0  0  0  0
    4.6428    5.0222   28.6156 H   0  0  0  1  0  1  0  0  0  0  0  0
    5.0517    4.1043   27.1263 H   0  0  0  1  0  1  0  0  0  0  0  0
    6.6491    2.1830   31.5226 H   0  0  0  1  0  1  0  0  0  0  0  0
    4.7143    6.5409   26.7087 H   0  0  0  1  0  1  0  0  0  0  0  0
    6.3635    5.9702   26.2811 H   0  0  0  1  0  1  0  0  0  0  0  0
    6.6222    8.0729   27.4113 H   0  0  0  1  0  1  0  0  0  0  0  0
    4.9554    8.8645   30.8300 H   0  0  0  1  0  1  0  0  0  0  0  0
    5.6343    9.7954   29.4514 H   0  0  0  1  0  1  0  0  0  0  0  0
    7.7273    8.4731   29.5883 H   0  0  0  1  0  1  0  0  0  0  0  0
    7.0484    7.5412   30.9666 H   0  0  0  1  0  1  0  0  0  0  0  0
    7.3771    9.2985   31.1449 H   0  0  0  1  0  1  0  0  0  0  0  0
    3.7690    8.9450   27.9644 H   0  0  0  1  0  1  0  0  0  0  0  0
    3.0888    7.9899   29.3264 H   0  0  0  1  0  1  0  0  0  0  0  0
    2.2620    7.1771   27.1585 H   0  0  0  1  0  1  0  0  0  0  0  0
    3.2694    5.9328   27.9730 H   0  0  0  1  0  1  0  0  0  0  0  0
    3.9485    6.8871   26.6113 H   0  0  0  1  0  1  0  0  0  0  0  0
    7.7114    7.4270   29.6237 H   0  0  0  1  0  1  0  0  0  0  0  0
    8.3165    6.5560   28.1734 H   0  0  0  1  0  1  0  0  0  0  0  0
    7.9852    4.9734   30.0078 H   0  0  0  1  0  1  0  0  0  0  0  0
    6.2889    5.5278   30.2164 H   0  0  0  1  0  1  0  0  0  0  0  0
   10.3950   -1.5662   39.2997 H   0  0  0  1  0  1  0  0  0  0  0  0
   11.8516   -2.2758   40.0714 H   0  0  0  1  0  1  0  0  0  0  0  0
   11.0588   -3.1228   38.7013 H   0  0  0  1  0  1  0  0  0  0  0  0
   13.1641   -0.1647   39.6505 H   0  0  0  1  0  1  0  0  0  0  0  0
   11.6113    0.4968   39.0365 H   0  0  0  1  0  1  0  0  0  0  0  0
   13.0909    0.5945   38.0241 H   0  0  0  1  0  1  0  0  0  0  0  0
   14.1149   -1.6491   37.1437 H   0  0  0  1  0  1  0  0  0  0  0  0
   13.1888   -3.1661   37.4034 H   0  0  0  1  0  1  0  0  0  0  0  0
   14.0184   -2.3728   38.7857 H   0  0  0  1  0  1  0  0  0  0  0  0
  1  7  1  0  0  0  0
  1 23  1  0  0  0  0
  1 34  1  0  0  0  0
  2 10  1  0  0  0  0
  2 11  1  0  0  0  0
  2 22  1  0  0  0  0
  2 35  1  0  0  0  0
  3 16  1  0  0  0  0
  3 17  1  0  0  0  0
  3 19  1  0  0  0  0
  3 40  1  0  0  0  0
  4  5  1  0  0  0  0
  4  9  2  0  0  0  0
  4 12  1  0  0  0  0
  5  6  3  0  0  0  0
  6  7  1  0  0  0  0
  7 32  1  0  0  0  0
  7 33  1  0  0  0  0
  8 10  1  0  0  0  0
  8 12  2  0  0  0  0
  8 14  1  0  0  0  0
  9 13  1  0  0  0  0
  9 37  1  0  0  0  0
 10 38  1  0  0  0  0
 10 39  1  0  0  0  0
 11 15  1  0  0  0  0
 11 41  1  0  0  0  0
 11 42  1  0  0  0  0
 12 43  1  0  0  0  0
 13 14  2  0  0  0  0
 13 31  1  0  0  0  0
 14 28  1  0  0  0  0
 15 16  1  0  0  0  0
 15 44  1  0  0  0  0
 15 45  1  0  0  0  0
 16 21  1  0  0  0  0
 16 46  1  0  0  0  0
 17 18  1  0  0  0  0
 17 47  1  0  0  0  0
 17 48  1  0  0  0  0
 18 49  1  0  0  0  0
 18 50  1  0  0  0  0
 18 51  1  0  0  0  0
 19 20  1  0  0  0  0
 19 52  1  0  0  0  0
 19 53  1  0  0  0  0
 20 54  1  0  0  0  0
 20 55  1  0  0  0  0
 20 56  1  0  0  0  0
 21 22  1  0  0  0  0
 21 57  1  0  0  0  0
 21 58  1  0  0  0  0
 22 59  1  0  0  0  0
 22 60  1  0  0  0  0
 23 29  1  0  0  0  0
 23 30  2  0  0  0  0
 24 25  1  0  0  0  0
 24 26  1  0  0  0  0
 24 27  1  0  0  0  0
 24 29  1  0  0  0  0
 25 61  1  0  0  0  0
 25 62  1  0  0  0  0
 25 63  1  0  0  0  0
 26 64  1  0  0  0  0
 26 65  1  0  0  0  0
 26 66  1  0  0  0  0
 27 67  1  0  0  0  0
 27 68  1  0  0  0  0
 27 69  1  0  0  0  0
 28 36  1  0  0  0  0
M  END
> <ConfScore>
-0.630022 

$$$$
4ago


 69 70  0  0  0  0  0  0  0  0999 V2000
  123.9790  100.2820  -49.2222 N   0  0  0  1  0  3  0  0  0  0  0  0
  124.4876  107.3549  -45.9165 N   0  3  0  1  0  4  0  0  0  0  0  0
  126.8999  109.8636  -48.4376 N   0  3  0  1  0  4  0  0  0  0  0  0
  124.4410  102.8420  -45.2570 C   0  0  0  1  0  3  0  0  0  0  0  0
  124.5030  101.8040  -46.2320 C   0  0  0  1  0  2  0  0  0  0  0  0
  124.6100  100.9470  -47.0580 C   0  0  0  1  0  2  0  0  0  0  0  0
  124.7490   99.8890  -48.0630 C   0  0  0  1  0  4  0  0  0  0  0  0
  123.8990  105.1710  -44.8720 C   0  0  0  1  0  3  0  0  0  0  0  0
  124.8080  102.6740  -43.9190 C   0  0  0  1  0  3  0  0  0  0  0  0
  123.4000  106.4840  -45.4060 C   0  0  0  1  0  4  0  0  0  0  0  0
  123.9383  108.6901  -46.3286 C   0  0  0  1  0  4  0  0  0  0  0  0
  124.0000  104.0880  -45.7400 C   0  0  0  1  0  3  0  0  0  0  0  0
  124.6970  103.7740  -43.0690 C   0  0  0  1  0  3  0  0  0  0  0  0
  124.2530  105.0330  -43.5070 C   0  0  0  1  0  3  0  0  0  0  0  0
  125.1046  109.5763  -46.7288 C   0  0  0  1  0  4  0  0  0  0  0  0
  125.7873  108.9302  -47.9245 C   0  0  0  1  0  4  0  0  0  0  0  0
  127.9669  109.1782  -49.3001 C   0  0  0  1  0  4  0  0  0  0  0  0
  127.3484  108.7790  -50.6272 C   0  0  0  1  0  4  0  0  0  0  0  0
  126.5179  111.2369  -48.9776 C   0  0  0  1  0  4  0  0  0  0  0  0
  125.7409  111.2116  -50.2886 C   0  0  0  1  0  4  0  0  0  0  0  0
  126.3717  107.5691  -47.5012 C   0  0  0  1  0  4  0  0  0  0  0  0
  125.2297  106.6884  -47.0318 C   0  0  0  1  0  4  0  0  0  0  0  0
  123.8932   99.4789  -50.3233 C   0  0  0  1  0  3  0  0  0  0  0  0
  122.8522   99.4930  -52.5401 C   0  0  0  1  0  4  0  0  0  0  0  0
  121.9471  100.5099  -53.2451 C   0  0  0  1  0  4  0  0  0  0  0  0
  122.0755   98.1750  -52.4211 C   0  0  0  1  0  4  0  0  0  0  0  0
  124.1502   99.3197  -53.3382 C   0  0  0  1  0  4  0  0  0  0  0  0
  124.1560  106.1120  -42.6860 O   0  0  0  1  0  2  0  0  0  0  0  0
  123.1144  100.0958  -51.2439 O   0  0  0  1  0  2  0  0  0  0  0  0
  124.4034   98.3715  -50.4033 O   0  0  0  1  0  1  0  0  0  0  0  0
  125.2210  103.5640  -41.0130 I   0  0  0  1  0  1  0  0  0  0  0  0
  124.3655   98.9394  -47.6630 H   0  0  0  1  0  1  0  0  0  0  0  0
  125.8066   99.7698  -48.3385 H   0  0  0  1  0  1  0  0  0  0  0  0
  123.4995  101.1593  -49.2182 H   0  0  0  1  0  1  0  0  0  0  0  0
  125.1402  107.5097  -45.1645 H   0  0  0  1  0  1  0  0  0  0  0  0
  124.4250  105.8660  -41.8080 H   0  0  0  1  0  1  0  0  0  0  0  0
  125.1680  101.7180  -43.5540 H   0  0  0  1  0  1  0  0  0  0  0  0
  122.8751  107.0148  -44.5971 H   0  0  0  1  0  1  0  0  0  0  0  0
  122.6972  106.2833  -46.2287 H   0  0  0  1  0  1  0  0  0  0  0  0
  127.3932  110.0902  -47.5894 H   0  0  0  1  0  1  0  0  0  0  0  0
  123.3958  109.1463  -45.4874 H   0  0  0  1  0  1  0  0  0  0  0  0
  123.2557  108.5652  -47.1822 H   0  0  0  1  0  1  0  0  0  0  0  0
  123.7390  104.2040  -46.7850 H   0  0  0  1  0  1  0  0  0  0  0  0
  125.8145  109.6612  -45.8927 H   0  0  0  1  0  1  0  0  0  0  0  0
  124.7378  110.5771  -47.0014 H   0  0  0  1  0  1  0  0  0  0  0  0
  125.0498  108.7714  -48.7257 H   0  0  0  1  0  1  0  0  0  0  0  0
  128.3402  108.2820  -48.7829 H   0  0  0  1  0  1  0  0  0  0  0  0
  128.8010  109.8740  -49.4769 H   0  0  0  1  0  1  0  0  0  0  0  0
  126.9590  109.6745  -51.1348 H   0  0  0  1  0  1  0  0  0  0  0  0
  126.5256  108.0706  -50.4502 H   0  0  0  1  0  1  0  0  0  0  0  0
  128.1128  108.3033  -51.2595 H   0  0  0  1  0  1  0  0  0  0  0  0
  127.4435  111.8105  -49.1395 H   0  0  0  1  0  1  0  0  0  0  0  0
  125.8997  111.7421  -48.2217 H   0  0  0  1  0  1  0  0  0  0  0  0
  124.8124  110.6373  -50.1522 H   0  0  0  1  0  1  0  0  0  0  0  0
  126.3543  110.7369  -51.0683 H   0  0  0  1  0  1  0  0  0  0  0  0
  125.4953  112.2402  -50.5905 H   0  0  0  1  0  1  0  0  0  0  0  0
  127.0926  107.7115  -46.6831 H   0  0  0  1  0  1  0  0  0  0  0  0
  126.8783  107.0988  -48.3574 H   0  0  0  1  0  1  0  0  0  0  0  0
  124.5404  106.5088  -47.8706 H   0  0  0  1  0  1  0  0  0  0  0  0
  125.6334  105.7289  -46.6769 H   0  0  0  1  0  1  0  0  0  0  0  0
  121.6903  100.1389  -54.2476 H   0  0  0  1  0  1  0  0  0  0  0  0
  122.4740  101.4704  -53.3345 H   0  0  0  1  0  1  0  0  0  0  0  0
  121.0271  100.6493  -52.6597 H   0  0  0  1  0  1  0  0  0  0  0  0
  121.1097   98.3619  -51.9287 H   0  0  0  1  0  1  0  0  0  0  0  0
  122.6581   97.4579  -51.8235 H   0  0  0  1  0  1  0  0  0  0  0  0
  121.9023   97.7596  -53.4240 H   0  0  0  1  0  1  0  0  0  0  0  0
  124.6094  100.3049  -53.5095 H   0  0  0  1  0  1  0  0  0  0  0  0
  123.9258   98.8467  -54.3051 H   0  0  0  1  0  1  0  0  0  0  0  0
  124.8468   98.6839  -52.7710 H   0  0  0  1  0  1  0  0  0  0  0  0
  1  7  1  0  0  0  0
  1 23  1  0  0  0  0
  1 34  1  0  0  0  0
  2 10  1  0  0  0  0
  2 11  1  0  0  0  0
  2 22  1  0  0  0  0
  2 35  1  0  0  0  0
  3 16  1  0  0  0  0
  3 17  1  0  0  0  0
  3 19  1  0  0  0  0
  3 40  1  0  0  0  0
  4  5  1  0  0  0  0
  4  9  2  0  0  0  0
  4 12  1  0  0  0  0
  5  6  3  0  0  0  0
  6  7  1  0  0  0  0
  7 32  1  0  0  0  0
  7 33  1  0  0  0  0
  8 10  1  0  0  0  0
  8 12  2  0  0  0  0
  8 14  1  0  0  0  0
  9 13  1  0  0  0  0
  9 37  1  0  0  0  0
 10 38  1  0  0  0  0
 10 39  1  0  0  0  0
 11 15  1  0  0  0  0
 11 41  1  0  0  0  0
 11 42  1  0  0  0  0
 12 43  1  0  0  0  0
 13 14  2  0  0  0  0
 13 31  1  0  0  0  0
 14 28  1  0  0  0  0
 15 16  1  0  0  0  0
 15 44  1  0  0  0  0
 15 45  1  0  0  0  0
 16 21  1  0  0  0  0
 16 46  1  0  0  0  0
 17 18  1  0  0  0  0
 17 47  1  0  0  0  0
 17 48  1  0  0  0  0
 18 49  1  0  0  0  0
 18 50  1  0  0  0  0
 18 51  1  0  0  0  0
 19 20  1  0  0  0  0
 19 52  1  0  0  0  0
 19 53  1  0  0  0  0
 20 54  1  0  0  0  0
 20 55  1  0  0  0  0
 20 56  1  0  0  0  0
 21 22  1  0  0  0  0
 21 57  1  0  0  0  0
 21 58  1  0  0  0  0
 22 59  1  0  0  0  0
 22 60  1  0  0  0  0
 23 29  1  0  0  0  0
 23 30  2  0  0  0  0
 24 25  1  0  0  0  0
 24 26  1  0  0  0  0
 24 27  1  0  0  0  0
 24 29  1  0  0  0  0
 25 61  1  0  0  0  0
 25 62  1  0  0  0  0
 25 63  1  0  0  0  0
 26 64  1  0  0  0  0
 26 65  1  0  0  0  0
 26 66  1  0  0  0  0
 27 67  1  0  0  0  0
 27 68  1  0  0  0  0
 27 69  1  0  0  0  0
 28 36  1  0  0  0  0
M  END
> <ConfScore>
-0.629005 

$$$$
4ago


 69 70  0  0  0  0  0  0  0  0999 V2000
   91.1554   91.2821  -49.2504 N   0  0  0  1  0  3  0  0  0  0  0  0
   88.6180   97.5157  -44.6538 N   0  3  0  1  0  4  0  0  0  0  0  0
   85.7544   99.6864  -42.2783 N   0  3  0  1  0  4  0  0  0  0  0  0
   91.2337   93.6144  -45.1525 C   0  0  0  1  0  3  0  0  0  0  0  0
   91.3933   92.5817  -46.1220 C   0  0  0  1  0  2  0  0  0  0  0  0
   91.5051   91.7512  -46.9740 C   0  0  0  1  0  2  0  0  0  0  0  0
   91.6473   90.7242  -48.0102 C   0  0  0  1  0  4  0  0  0  0  0  0
   90.5014   95.8938  -44.7858 C   0  0  0  1  0  3  0  0  0  0  0  0
   91.5924   93.4805  -43.8084 C   0  0  0  1  0  3  0  0  0  0  0  0
   89.9050   97.1660  -45.3350 C   0  0  0  1  0  4  0  0  0  0  0  0
   88.0299   98.7902  -45.1990 C   0  0  0  1  0  4  0  0  0  0  0  0
   90.7019   94.8197  -45.6475 C   0  0  0  1  0  3  0  0  0  0  0  0
   91.3808   94.5707  -42.9650 C   0  0  0  1  0  3  0  0  0  0  0  0
   90.8444   95.7888  -43.4150 C   0  0  0  1  0  3  0  0  0  0  0  0
   86.7023   99.0671  -44.5107 C   0  0  0  1  0  4  0  0  0  0  0  0
   87.0254   99.2457  -43.0286 C   0  0  0  1  0  4  0  0  0  0  0  0
   86.0055  100.3109  -40.9002 C   0  0  0  1  0  4  0  0  0  0  0  0
   84.6783  100.4753  -40.1828 C   0  0  0  1  0  4  0  0  0  0  0  0
   84.6594  100.4142  -43.0495 C   0  0  0  1  0  4  0  0  0  0  0  0
   84.9549  101.8802  -43.3434 C   0  0  0  1  0  4  0  0  0  0  0  0
   87.5294   97.9204  -42.4412 C   0  0  0  1  0  4  0  0  0  0  0  0
   88.8166   97.5630  -43.1662 C   0  0  0  1  0  4  0  0  0  0  0  0
   91.7675   92.3507  -49.8405 C   0  0  0  1  0  3  0  0  0  0  0  0
   91.5486   93.7151  -51.8624 C   0  0  0  1  0  4  0  0  0  0  0  0
   93.0135   93.3628  -52.1457 C   0  0  0  1  0  4  0  0  0  0  0  0
   91.5186   95.0904  -51.1825 C   0  0  0  1  0  4  0  0  0  0  0  0
   90.7555   93.7106  -53.1750 C   0  0  0  1  0  4  0  0  0  0  0  0
   90.6489   96.8591  -42.6002 O   0  0  0  1  0  2  0  0  0  0  0  0
   91.0972   92.6542  -50.9776 O   0  0  0  1  0  2  0  0  0  0  0  0
   92.7811   92.8809  -49.4110 O   0  0  0  1  0  1  0  0  0  0  0  0
   91.8884   94.4097  -40.9004 I   0  0  0  1  0  1  0  0  0  0  0  0
   91.0592   89.8353  -47.7401 H   0  0  0  1  0  1  0  0  0  0  0  0
   92.7050   90.4445  -48.1187 H   0  0  0  1  0  1  0  0  0  0  0  0
   90.3510   90.8778  -49.6852 H   0  0  0  1  0  1  0  0  0  0  0  0
   87.9436   96.7927  -44.8488 H   0  0  0  1  0  1  0  0  0  0  0  0
   90.9232   96.6382  -41.7172 H   0  0  0  1  0  1  0  0  0  0  0  0
   92.0220   92.5575  -43.4340 H   0  0  0  1  0  1  0  0  0  0  0  0
   90.6214   97.9883  -45.1867 H   0  0  0  1  0  1  0  0  0  0  0  0
   89.7143   97.0345  -46.4108 H   0  0  0  1  0  1  0  0  0  0  0  0
   85.3208   98.8038  -42.0610 H   0  0  0  1  0  1  0  0  0  0  0  0
   87.8671   98.6856  -46.2819 H   0  0  0  1  0  1  0  0  0  0  0  0
   88.7221   99.6241  -45.0106 H   0  0  0  1  0  1  0  0  0  0  0  0
   90.4485   94.9112  -46.6968 H   0  0  0  1  0  1  0  0  0  0  0  0
   86.0145   98.2204  -44.6524 H   0  0  0  1  0  1  0  0  0  0  0  0
   86.2458   99.9827  -44.9152 H   0  0  0  1  0  1  0  0  0  0  0  0
   87.8043  100.0149  -42.9150 H   0  0  0  1  0  1  0  0  0  0  0  0
   86.4831  101.2942  -41.0218 H   0  0  0  1  0  1  0  0  0  0  0  0
   86.6634   99.6536  -40.3118 H   0  0  0  1  0  1  0  0  0  0  0  0
   84.0270  101.1451  -40.7645 H   0  0  0  1  0  1  0  0  0  0  0  0
   84.8512  100.9064  -39.1856 H   0  0  0  1  0  1  0  0  0  0  0  0
   84.1937   99.4930  -40.0790 H   0  0  0  1  0  1  0  0  0  0  0  0
   83.7327  100.3640  -42.4573 H   0  0  0  1  0  1  0  0  0  0  0  0
   84.5122   99.8948  -44.0073 H   0  0  0  1  0  1  0  0  0  0  0  0
   85.8822  101.9556  -43.9307 H   0  0  0  1  0  1  0  0  0  0  0  0
   85.0755  102.4261  -42.3962 H   0  0  0  1  0  1  0  0  0  0  0  0
   84.1223  102.3160  -43.9146 H   0  0  0  1  0  1  0  0  0  0  0  0
   86.7794   97.1313  -42.5959 H   0  0  0  1  0  1  0  0  0  0  0  0
   87.7240   98.0361  -41.3642 H   0  0  0  1  0  1  0  0  0  0  0  0
   89.5803   98.3198  -42.9319 H   0  0  0  1  0  1  0  0  0  0  0  0
   89.1589   96.5767  -42.8203 H   0  0  0  1  0  1  0  0  0  0  0  0
   93.4524   94.1240  -52.8064 H   0  0  0  1  0  1  0  0  0  0  0  0
   93.0668   92.3798  -52.6346 H   0  0  0  1  0  1  0  0  0  0  0  0
   93.5727   93.3329  -51.1998 H   0  0  0  1  0  1  0  0  0  0  0  0
   92.1756   95.0775  -50.3003 H   0  0  0  1  0  1  0  0  0  0  0  0
   90.4897   95.3229  -50.8691 H   0  0  0  1  0  1  0  0  0  0  0  0
   91.8674   95.8566  -51.8894 H   0  0  0  1  0  1  0  0  0  0  0  0
   90.9074   92.7511  -53.6917 H   0  0  0  1  0  1  0  0  0  0  0  0
   91.1046   94.5321  -53.8171 H   0  0  0  1  0  1  0  0  0  0  0  0
   89.6851   93.8442  -52.9566 H   0  0  0  1  0  1  0  0  0  0  0  0
  1  7  1  0  0  0  0
  1 23  1  0  0  0  0
  1 34  1  0  0  0  0
  2 10  1  0  0  0  0
  2 11  1  0  0  0  0
  2 22  1  0  0  0  0
  2 35  1  0  0  0  0
  3 16  1  0  0  0  0
  3 17  1  0  0  0  0
  3 19  1  0  0  0  0
  3 40  1  0  0  0  0
  4  5  1  0  0  0  0
  4  9  2  0  0  0  0
  4 12  1  0  0  0  0
  5  6  3  0  0  0  0
  6  7  1  0  0  0  0
  7 32  1  0  0  0  0
  7 33  1  0  0  0  0
  8 10  1  0  0  0  0
  8 12  2  0  0  0  0
  8 14  1  0  0  0  0
  9 13  1  0  0  0  0
  9 37  1  0  0  0  0
 10 38  1  0  0  0  0
 10 39  1  0  0  0  0
 11 15  1  0  0  0  0
 11 41  1  0  0  0  0
 11 42  1  0  0  0  0
 12 43  1  0  0  0  0
 13 14  2  0  0  0  0
 13 31  1  0  0  0  0
 14 28  1  0  0  0  0
 15 16  1  0  0  0  0
 15 44  1  0  0  0  0
 15 45  1  0  0  0  0
 16 21  1  0  0  0  0
 16 46  1  0  0  0  0
 17 18  1  0  0  0  0
 17 47  1  0  0  0  0
 17 48  1  0  0  0  0
 18 49  1  0  0  0  0
 18 50  1  0  0  0  0
 18 51  1  0  0  0  0
 19 20  1  0  0  0  0
 19 52  1  0  0  0  0
 19 53  1  0  0  0  0
 20 54  1  0  0  0  0
 20 55  1  0  0  0  0
 20 56  1  0  0  0  0
 21 22  1  0  0  0  0
 21 57  1  0  0  0  0
 21 58  1  0  0  0  0
 22 59  1  0  0  0  0
 22 60  1  0  0  0  0
 23 29  1  0  0  0  0
 23 30  2  0  0  0  0
 24 25  1  0  0  0  0
 24 26  1  0  0  0  0
 24 27  1  0  0  0  0
 24 29  1  0  0  0  0
 25 61  1  0  0  0  0
 25 62  1  0  0  0  0
 25 63  1  0  0  0  0
 26 64  1  0  0  0  0
 26 65  1  0  0  0  0
 26 66  1  0  0  0  0
 27 67  1  0  0  0  0
 27 68  1  0  0  0  0
 27 69  1  0  0  0  0
 28 36  1  0  0  0  0
M  END
> <ConfScore>
-0.628177 

$$$$
4ago


 69 70  0  0  0  0  0  0  0  0999 V2000
   91.1554   91.2821  -49.2504 N   0  0  0  1  0  3  0  0  0  0  0  0
   90.3683   98.3703  -44.5750 N   0  3  0  1  0  4  0  0  0  0  0  0
   92.2965  102.1278  -43.7275 N   0  3  0  1  0  4  0  0  0  0  0  0
   91.2337   93.6144  -45.1525 C   0  0  0  1  0  3  0  0  0  0  0  0
   91.3933   92.5817  -46.1220 C   0  0  0  1  0  2  0  0  0  0  0  0
   91.5051   91.7512  -46.9740 C   0  0  0  1  0  2  0  0  0  0  0  0
   91.6473   90.7242  -48.0102 C   0  0  0  1  0  4  0  0  0  0  0  0
   90.5014   95.8938  -44.7858 C   0  0  0  1  0  3  0  0  0  0  0  0
   91.5924   93.4805  -43.8084 C   0  0  0  1  0  3  0  0  0  0  0  0
   89.9050   97.1660  -45.3350 C   0  0  0  1  0  4  0  0  0  0  0  0
   89.7773   99.6388  -45.1311 C   0  0  0  1  0  4  0  0  0  0  0  0
   90.7019   94.8197  -45.6475 C   0  0  0  1  0  3  0  0  0  0  0  0
   91.3808   94.5707  -42.9650 C   0  0  0  1  0  3  0  0  0  0  0  0
   90.8444   95.7888  -43.4150 C   0  0  0  1  0  3  0  0  0  0  0  0
   90.2381  100.8197  -44.2908 C   0  0  0  1  0  4  0  0  0  0  0  0
   91.7591  100.8630  -44.4231 C   0  0  0  1  0  4  0  0  0  0  0  0
   93.7191  102.5305  -44.1355 C   0  0  0  1  0  4  0  0  0  0  0  0
   94.5700  101.2802  -44.2609 C   0  0  0  1  0  4  0  0  0  0  0  0
   91.3765  103.3342  -43.5803 C   0  0  0  1  0  4  0  0  0  0  0  0
   89.9401  102.9963  -43.1990 C   0  0  0  1  0  4  0  0  0  0  0  0
   92.3754   99.6202  -43.7663 C   0  0  0  1  0  4  0  0  0  0  0  0
   91.8687   98.4061  -44.5276 C   0  0  0  1  0  4  0  0  0  0  0  0
   91.2600   92.6168  -49.5194 C   0  0  0  1  0  3  0  0  0  0  0  0
   90.6846   94.1889  -51.3070 C   0  0  0  1  0  4  0  0  0  0  0  0
   89.7823   94.9734  -50.3475 C   0  0  0  1  0  4  0  0  0  0  0  0
   90.0299   94.2136  -52.6946 C   0  0  0  1  0  4  0  0  0  0  0  0
   92.0839   94.8163  -51.3256 C   0  0  0  1  0  4  0  0  0  0  0  0
   90.6489   96.8591  -42.6002 O   0  0  0  1  0  2  0  0  0  0  0  0
   90.7212   92.8513  -50.7398 O   0  0  0  1  0  2  0  0  0  0  0  0
   91.8051   93.4226  -48.7802 O   0  0  0  1  0  1  0  0  0  0  0  0
   91.8884   94.4097  -40.9004 I   0  0  0  1  0  1  0  0  0  0  0  0
   91.0592   89.8353  -47.7401 H   0  0  0  1  0  1  0  0  0  0  0  0
   92.7050   90.4445  -48.1187 H   0  0  0  1  0  1  0  0  0  0  0  0
   90.7300   90.6791  -49.9249 H   0  0  0  1  0  1  0  0  0  0  0  0
   90.0347   98.3007  -43.6266 H   0  0  0  1  0  1  0  0  0  0  0  0
   90.9232   96.6382  -41.7172 H   0  0  0  1  0  1  0  0  0  0  0  0
   92.0220   92.5575  -43.4340 H   0  0  0  1  0  1  0  0  0  0  0  0
   90.2035   97.2734  -46.3890 H   0  0  0  1  0  1  0  0  0  0  0  0
   88.8083   97.1030  -45.2684 H   0  0  0  1  0  1  0  0  0  0  0  0
   92.4042  101.8159  -42.7761 H   0  0  0  1  0  1  0  0  0  0  0  0
   88.6795   99.5751  -45.1039 H   0  0  0  1  0  1  0  0  0  0  0  0
   90.1117   99.7749  -46.1702 H   0  0  0  1  0  1  0  0  0  0  0  0
   90.4485   94.9112  -46.6968 H   0  0  0  1  0  1  0  0  0  0  0  0
   89.9501  100.6757  -43.2389 H   0  0  0  1  0  1  0  0  0  0  0  0
   89.7951  101.7533  -44.6684 H   0  0  0  1  0  1  0  0  0  0  0  0
   92.0322  100.8858  -45.4890 H   0  0  0  1  0  1  0  0  0  0  0  0
   94.1489  103.1937  -43.3705 H   0  0  0  1  0  1  0  0  0  0  0  0
   93.6908  103.0554  -45.1023 H   0  0  0  1  0  1  0  0  0  0  0  0
   94.5960  100.7553  -43.2940 H   0  0  0  1  0  1  0  0  0  0  0  0
   95.5926  101.5603  -44.5541 H   0  0  0  1  0  1  0  0  0  0  0  0
   94.1374  100.6177  -45.0255 H   0  0  0  1  0  1  0  0  0  0  0  0
   91.3582  103.8700  -44.5419 H   0  0  0  1  0  1  0  0  0  0  0  0
   91.7933  103.9896  -42.8022 H   0  0  0  1  0  1  0  0  0  0  0  0
   89.9339  102.4540  -42.2417 H   0  0  0  1  0  1  0  0  0  0  0  0
   89.4929  102.3651  -43.9807 H   0  0  0  1  0  1  0  0  0  0  0  0
   89.3580  103.9240  -43.0989 H   0  0  0  1  0  1  0  0  0  0  0  0
   92.0660   99.5593  -42.7129 H   0  0  0  1  0  1  0  0  0  0  0  0
   93.4733   99.6694  -43.8245 H   0  0  0  1  0  1  0  0  0  0  0  0
   92.2576   98.4419  -45.5564 H   0  0  0  1  0  1  0  0  0  0  0  0
   92.2318   97.4954  -44.0294 H   0  0  0  1  0  1  0  0  0  0  0  0
   89.6818   96.0089  -50.7029 H   0  0  0  1  0  1  0  0  0  0  0  0
   90.2271   94.9734  -49.3424 H   0  0  0  1  0  1  0  0  0  0  0  0
   88.7900   94.5017  -50.3095 H   0  0  0  1  0  1  0  0  0  0  0  0
   90.5987   93.5677  -53.3797 H   0  0  0  1  0  1  0  0  0  0  0  0
   90.0266   95.2438  -53.0810 H   0  0  0  1  0  1  0  0  0  0  0  0
   88.9959   93.8483  -52.6186 H   0  0  0  1  0  1  0  0  0  0  0  0
   92.4639   94.8953  -50.2960 H   0  0  0  1  0  1  0  0  0  0  0  0
   92.0304   95.8186  -51.7746 H   0  0  0  1  0  1  0  0  0  0  0  0
   92.7611   94.1835  -51.9191 H   0  0  0  1  0  1  0  0  0  0  0  0
  1  7  1  0  0  0  0
  1 23  1  0  0  0  0
  1 34  1  0  0  0  0
  2 10  1  0  0  0  0
  2 11  1  0  0  0  0
  2 22  1  0  0  0  0
  2 35  1  0  0  0  0
  3 16  1  0  0  0  0
  3 17  1  0  0  0  0
  3 19  1  0  0  0  0
  3 40  1  0  0  0  0
  4  5  1  0  0  0  0
  4  9  2  0  0  0  0
  4 12  1  0  0  0  0
  5  6  3  0  0  0  0
  6  7  1  0  0  0  0
  7 32  1  0  0  0  0
  7 33  1  0  0  0  0
  8 10  1  0  0  0  0
  8 12  2  0  0  0  0
  8 14  1  0  0  0  0
  9 13  1  0  0  0  0
  9 37  1  0  0  0  0
 10 38  1  0  0  0  0
 10 39  1  0  0  0  0
 11 15  1  0  0  0  0
 11 41  1  0  0  0  0
 11 42  1  0  0  0  0
 12 43  1  0  0  0  0
 13 14  2  0  0  0  0
 13 31  1  0  0  0  0
 14 28  1  0  0  0  0
 15 16  1  0  0  0  0
 15 44  1  0  0  0  0
 15 45  1  0  0  0  0
 16 21  1  0  0  0  0
 16 46  1  0  0  0  0
 17 18  1  0  0  0  0
 17 47  1  0  0  0  0
 17 48  1  0  0  0  0
 18 49  1  0  0  0  0
 18 50  1  0  0  0  0
 18 51  1  0  0  0  0
 19 20  1  0  0  0  0
 19 52  1  0  0  0  0
 19 53  1  0  0  0  0
 20 54  1  0  0  0  0
 20 55  1  0  0  0  0
 20 56  1  0  0  0  0
 21 22  1  0  0  0  0
 21 57  1  0  0  0  0
 21 58  1  0  0  0  0
 22 59  1  0  0  0  0
 22 60  1  0  0  0  0
 23 29  1  0  0  0  0
 23 30  2  0  0  0  0
 24 25  1  0  0  0  0
 24 26  1  0  0  0  0
 24 27  1  0  0  0  0
 24 29  1  0  0  0  0
 25 61  1  0  0  0  0
 25 62  1  0  0  0  0
 25 63  1  0  0  0  0
 26 64  1  0  0  0  0
 26 65  1  0  0  0  0
 26 66  1  0  0  0  0
 27 67  1  0  0  0  0
 27 68  1  0  0  0  0
 27 69  1  0  0  0  0
 28 36  1  0  0  0  0
M  END
> <ConfScore>
-0.628128 

$$$$
4ago


 69 70  0  0  0  0  0  0  0  0999 V2000
   91.1554   91.2821  -49.2504 N   0  0  0  1  0  3  0  0  0  0  0  0
   90.3683   98.3703  -44.5750 N   0  3  0  1  0  4  0  0  0  0  0  0
   92.2965  102.1278  -43.7275 N   0  3  0  1  0  4  0  0  0  0  0  0
   91.2337   93.6144  -45.1525 C   0  0  0  1  0  3  0  0  0  0  0  0
   91.3933   92.5817  -46.1220 C   0  0  0  1  0  2  0  0  0  0  0  0
   91.5051   91.7512  -46.9740 C   0  0  0  1  0  2  0  0  0  0  0  0
   91.6473   90.7242  -48.0102 C   0  0  0  1  0  4  0  0  0  0  0  0
   90.5014   95.8938  -44.7858 C   0  0  0  1  0  3  0  0  0  0  0  0
   91.5924   93.4805  -43.8084 C   0  0  0  1  0  3  0  0  0  0  0  0
   89.9050   97.1660  -45.3350 C   0  0  0  1  0  4  0  0  0  0  0  0
   89.7773   99.6388  -45.1311 C   0  0  0  1  0  4  0  0  0  0  0  0
   90.7019   94.8197  -45.6475 C   0  0  0  1  0  3  0  0  0  0  0  0
   91.3808   94.5707  -42.9650 C   0  0  0  1  0  3  0  0  0  0  0  0
   90.8444   95.7888  -43.4150 C   0  0  0  1  0  3  0  0  0  0  0  0
   90.2381  100.8197  -44.2908 C   0  0  0  1  0  4  0  0  0  0  0  0
   91.7591  100.8630  -44.4231 C   0  0  0  1  0  4  0  0  0  0  0  0
   93.7191  102.5305  -44.1355 C   0  0  0  1  0  4  0  0  0  0  0  0
   94.5700  101.2802  -44.2609 C   0  0  0  1  0  4  0  0  0  0  0  0
   91.3765  103.3342  -43.5803 C   0  0  0  1  0  4  0  0  0  0  0  0
   89.9401  102.9963  -43.1990 C   0  0  0  1  0  4  0  0  0  0  0  0
   92.3754   99.6202  -43.7663 C   0  0  0  1  0  4  0  0  0  0  0  0
   91.8687   98.4061  -44.5276 C   0  0  0  1  0  4  0  0  0  0  0  0
   90.1362   92.1908  -49.2653 C   0  0  0  1  0  3  0  0  0  0  0  0
   88.8766   93.5226  -50.8894 C   0  0  0  1  0  4  0  0  0  0  0  0
   87.5648   92.8838  -50.4189 C   0  0  0  1  0  4  0  0  0  0  0  0
   88.7717   93.7519  -52.4031 C   0  0  0  1  0  4  0  0  0  0  0  0
   89.1119   94.8335  -50.1291 C   0  0  0  1  0  4  0  0  0  0  0  0
   90.6489   96.8591  -42.6002 O   0  0  0  1  0  2  0  0  0  0  0  0
   89.8886   92.5357  -50.5515 O   0  0  0  1  0  2  0  0  0  0  0  0
   89.6009   92.6344  -48.2605 O   0  0  0  1  0  1  0  0  0  0  0  0
   91.8884   94.4097  -40.9004 I   0  0  0  1  0  1  0  0  0  0  0  0
   91.0592   89.8353  -47.7401 H   0  0  0  1  0  1  0  0  0  0  0  0
   92.7050   90.4445  -48.1187 H   0  0  0  1  0  1  0  0  0  0  0  0
   91.5693   90.9972  -50.1147 H   0  0  0  1  0  1  0  0  0  0  0  0
   90.0347   98.3007  -43.6266 H   0  0  0  1  0  1  0  0  0  0  0  0
   90.9232   96.6382  -41.7172 H   0  0  0  1  0  1  0  0  0  0  0  0
   92.0220   92.5575  -43.4340 H   0  0  0  1  0  1  0  0  0  0  0  0
   90.2035   97.2734  -46.3890 H   0  0  0  1  0  1  0  0  0  0  0  0
   88.8083   97.1030  -45.2684 H   0  0  0  1  0  1  0  0  0  0  0  0
   92.4042  101.8159  -42.7761 H   0  0  0  1  0  1  0  0  0  0  0  0
   88.6795   99.5751  -45.1039 H   0  0  0  1  0  1  0  0  0  0  0  0
   90.1117   99.7749  -46.1702 H   0  0  0  1  0  1  0  0  0  0  0  0
   90.4485   94.9112  -46.6968 H   0  0  0  1  0  1  0  0  0  0  0  0
   89.9501  100.6757  -43.2389 H   0  0  0  1  0  1  0  0  0  0  0  0
   89.7951  101.7533  -44.6684 H   0  0  0  1  0  1  0  0  0  0  0  0
   92.0322  100.8858  -45.4890 H   0  0  0  1  0  1  0  0  0  0  0  0
   94.1489  103.1937  -43.3705 H   0  0  0  1  0  1  0  0  0  0  0  0
   93.6908  103.0554  -45.1023 H   0  0  0  1  0  1  0  0  0  0  0  0
   94.5960  100.7553  -43.2940 H   0  0  0  1  0  1  0  0  0  0  0  0
   95.5926  101.5603  -44.5541 H   0  0  0  1  0  1  0  0  0  0  0  0
   94.1374  100.6177  -45.0255 H   0  0  0  1  0  1  0  0  0  0  0  0
   91.3582  103.8700  -44.5419 H   0  0  0  1  0  1  0  0  0  0  0  0
   91.7933  103.9896  -42.8022 H   0  0  0  1  0  1  0  0  0  0  0  0
   89.9339  102.4540  -42.2417 H   0  0  0  1  0  1  0  0  0  0  0  0
   89.4929  102.3651  -43.9807 H   0  0  0  1  0  1  0  0  0  0  0  0
   89.3580  103.9240  -43.0989 H   0  0  0  1  0  1  0  0  0  0  0  0
   92.0660   99.5593  -42.7129 H   0  0  0  1  0  1  0  0  0  0  0  0
   93.4733   99.6694  -43.8245 H   0  0  0  1  0  1  0  0  0  0  0  0
   92.2576   98.4419  -45.5564 H   0  0  0  1  0  1  0  0  0  0  0  0
   92.2318   97.4954  -44.0294 H   0  0  0  1  0  1  0  0  0  0  0  0
   86.7268   93.5586  -50.6447 H   0  0  0  1  0  1  0  0  0  0  0  0
   87.6103   92.7075  -49.3349 H   0  0  0  1  0  1  0  0  0  0  0  0
   87.4153   91.9275  -50.9401 H   0  0  0  1  0  1  0  0  0  0  0  0
   89.7386   94.1090  -52.7875 H   0  0  0  1  0  1  0  0  0  0  0  0
   87.9960   94.5049  -52.6077 H   0  0  0  1  0  1  0  0  0  0  0  0
   88.5050   92.8080  -52.8993 H   0  0  0  1  0  1  0  0  0  0  0  0
   89.0531   94.6450  -49.0467 H   0  0  0  1  0  1  0  0  0  0  0  0
   88.3443   95.5666  -50.4159 H   0  0  0  1  0  1  0  0  0  0  0  0
   90.1085   95.2280  -50.3792 H   0  0  0  1  0  1  0  0  0  0  0  0
  1  7  1  0  0  0  0
  1 23  1  0  0  0  0
  1 34  1  0  0  0  0
  2 10  1  0  0  0  0
  2 11  1  0  0  0  0
  2 22  1  0  0  0  0
  2 35  1  0  0  0  0
  3 16  1  0  0  0  0
  3 17  1  0  0  0  0
  3 19  1  0  0  0  0
  3 40  1  0  0  0  0
  4  5  1  0  0  0  0
  4  9  2  0  0  0  0
  4 12  1  0  0  0  0
  5  6  3  0  0  0  0
  6  7  1  0  0  0  0
  7 32  1  0  0  0  0
  7 33  1  0  0  0  0
  8 10  1  0  0  0  0
  8 12  2  0  0  0  0
  8 14  1  0  0  0  0
  9 13  1  0  0  0  0
  9 37  1  0  0  0  0
 10 38  1  0  0  0  0
 10 39  1  0  0  0  0
 11 15  1  0  0  0  0
 11 41  1  0  0  0  0
 11 42  1  0  0  0  0
 12 43  1  0  0  0  0
 13 14  2  0  0  0  0
 13 31  1  0  0  0  0
 14 28  1  0  0  0  0
 15 16  1  0  0  0  0
 15 44  1  0  0  0  0
 15 45  1  0  0  0  0
 16 21  1  0  0  0  0
 16 46  1  0  0  0  0
 17 18  1  0  0  0  0
 17 47  1  0  0  0  0
 17 48  1  0  0  0  0
 18 49  1  0  0  0  0
 18 50  1  0  0  0  0
 18 51  1  0  0  0  0
 19 20  1  0  0  0  0
 19 52  1  0  0  0  0
 19 53  1  0  0  0  0
 20 54  1  0  0  0  0
 20 55  1  0  0  0  0
 20 56  1  0  0  0  0
 21 22  1  0  0  0  0
 21 57  1  0  0  0  0
 21 58  1  0  0  0  0
 22 59  1  0  0  0  0
 22 60  1  0  0  0  0
 23 29  1  0  0  0  0
 23 30  2  0  0  0  0
 24 25  1  0  0  0  0
 24 26  1  0  0  0  0
 24 27  1  0  0  0  0
 24 29  1  0  0  0  0
 25 61  1  0  0  0  0
 25 62  1  0  0  0  0
 25 63  1  0  0  0  0
 26 64  1  0  0  0  0
 26 65  1  0  0  0  0
 26 66  1  0  0  0  0
 27 67  1  0  0  0  0
 27 68  1  0  0  0  0
 27 69  1  0  0  0  0
 28 36  1  0  0  0  0
M  END
> <ConfScore>
-0.627652 

$$$$
4ago


 69 70  0  0  0  0  0  0  0  0999 V2000
   91.1554   91.2821  -49.2504 N   0  0  0  1  0  3  0  0  0  0  0  0
   88.5473   96.9346  -45.9230 N   0  3  0  1  0  4  0  0  0  0  0  0
   84.7743   95.0392  -46.7755 N   0  3  0  1  0  4  0  0  0  0  0  0
   91.2337   93.6144  -45.1525 C   0  0  0  1  0  3  0  0  0  0  0  0
   91.3933   92.5817  -46.1220 C   0  0  0  1  0  2  0  0  0  0  0  0
   91.5051   91.7512  -46.9740 C   0  0  0  1  0  2  0  0  0  0  0  0
   91.6473   90.7242  -48.0102 C   0  0  0  1  0  4  0  0  0  0  0  0
   90.5014   95.8938  -44.7858 C   0  0  0  1  0  3  0  0  0  0  0  0
   91.5924   93.4805  -43.8084 C   0  0  0  1  0  3  0  0  0  0  0  0
   89.9050   97.1660  -45.3350 C   0  0  0  1  0  4  0  0  0  0  0  0
   87.4782   96.9209  -44.8626 C   0  0  0  1  0  4  0  0  0  0  0  0
   90.7019   94.8197  -45.6475 C   0  0  0  1  0  3  0  0  0  0  0  0
   91.3808   94.5707  -42.9650 C   0  0  0  1  0  3  0  0  0  0  0  0
   90.8444   95.7888  -43.4150 C   0  0  0  1  0  3  0  0  0  0  0  0
   86.1192   96.7362  -45.5199 C   0  0  0  1  0  4  0  0  0  0  0  0
   86.1684   95.3768  -46.2144 C   0  0  0  1  0  4  0  0  0  0  0  0
   83.6638   94.9410  -45.7221 C   0  0  0  1  0  4  0  0  0  0  0  0
   82.3504   94.6299  -46.4159 C   0  0  0  1  0  4  0  0  0  0  0  0
   84.3029   95.7381  -48.0455 C   0  0  0  1  0  4  0  0  0  0  0  0
   85.2062   95.5352  -49.2562 C   0  0  0  1  0  4  0  0  0  0  0  0
   87.1843   95.4149  -47.3643 C   0  0  0  1  0  4  0  0  0  0  0  0
   88.5502   95.6842  -46.7544 C   0  0  0  1  0  4  0  0  0  0  0  0
   91.7174   92.3994  -49.7987 C   0  0  0  1  0  3  0  0  0  0  0  0
   91.5815   93.7064  -51.8653 C   0  0  0  1  0  4  0  0  0  0  0  0
   91.4326   94.9530  -50.9855 C   0  0  0  1  0  4  0  0  0  0  0  0
   90.6711   93.8820  -53.0880 C   0  0  0  1  0  4  0  0  0  0  0  0
   93.0511   93.5344  -52.2688 C   0  0  0  1  0  4  0  0  0  0  0  0
   90.6489   96.8591  -42.6002 O   0  0  0  1  0  2  0  0  0  0  0  0
   91.1461   92.6172  -51.0073 O   0  0  0  1  0  2  0  0  0  0  0  0
   92.6209   93.0361  -49.2779 O   0  0  0  1  0  1  0  0  0  0  0  0
   91.8884   94.4097  -40.9004 I   0  0  0  1  0  1  0  0  0  0  0  0
   91.0592   89.8353  -47.7401 H   0  0  0  1  0  1  0  0  0  0  0  0
   92.7050   90.4445  -48.1187 H   0  0  0  1  0  1  0  0  0  0  0  0
   90.3884   90.8415  -49.7164 H   0  0  0  1  0  1  0  0  0  0  0  0
   88.3245   97.7057  -46.5323 H   0  0  0  1  0  1  0  0  0  0  0  0
   90.9232   96.6382  -41.7172 H   0  0  0  1  0  1  0  0  0  0  0  0
   92.0220   92.5575  -43.4340 H   0  0  0  1  0  1  0  0  0  0  0  0
   89.8196   97.9004  -44.5196 H   0  0  0  1  0  1  0  0  0  0  0  0
   90.5694   97.5619  -46.1179 H   0  0  0  1  0  1  0  0  0  0  0  0
   84.8942   94.0869  -47.0802 H   0  0  0  1  0  1  0  0  0  0  0  0
   87.4938   97.8737  -44.3132 H   0  0  0  1  0  1  0  0  0  0  0  0
   87.6642   96.0913  -44.1644 H   0  0  0  1  0  1  0  0  0  0  0  0
   90.4485   94.9112  -46.6968 H   0  0  0  1  0  1  0  0  0  0  0  0
   85.9387   97.5344  -46.2549 H   0  0  0  1  0  1  0  0  0  0  0  0
   85.3228   96.7489  -44.7609 H   0  0  0  1  0  1  0  0  0  0  0  0
   86.4683   94.6065  -45.4879 H   0  0  0  1  0  1  0  0  0  0  0  0
   83.5794   95.8967  -45.1843 H   0  0  0  1  0  1  0  0  0  0  0  0
   83.9026   94.1381  -45.0084 H   0  0  0  1  0  1  0  0  0  0  0  0
   82.1137   95.4326  -47.1306 H   0  0  0  1  0  1  0  0  0  0  0  0
   81.5481   94.5571  -45.6668 H   0  0  0  1  0  1  0  0  0  0  0  0
   82.4377   93.6745  -46.9544 H   0  0  0  1  0  1  0  0  0  0  0  0
   84.2437   96.8180  -47.8400 H   0  0  0  1  0  1  0  0  0  0  0  0
   83.3027   95.3561  -48.2954 H   0  0  0  1  0  1  0  0  0  0  0  0
   84.7868   96.0732  -50.1195 H   0  0  0  1  0  1  0  0  0  0  0  0
   85.2705   94.4623  -49.4890 H   0  0  0  1  0  1  0  0  0  0  0  0
   86.2110   95.9235  -49.0347 H   0  0  0  1  0  1  0  0  0  0  0  0
   86.9231   96.2167  -48.0701 H   0  0  0  1  0  1  0  0  0  0  0  0
   87.1917   94.4492  -47.8919 H   0  0  0  1  0  1  0  0  0  0  0  0
   88.8308   94.8323  -46.1170 H   0  0  0  1  0  1  0  0  0  0  0  0
   89.2867   95.7954  -47.5636 H   0  0  0  1  0  1  0  0  0  0  0  0
   91.7307   95.8433  -51.5577 H   0  0  0  1  0  1  0  0  0  0  0  0
   92.0754   94.8559  -50.0992 H   0  0  0  1  0  1  0  0  0  0  0  0
   90.3847   95.0553  -50.6693 H   0  0  0  1  0  1  0  0  0  0  0  0
   89.6425   94.0822  -52.7532 H   0  0  0  1  0  1  0  0  0  0  0  0
   90.6867   92.9629  -53.6927 H   0  0  0  1  0  1  0  0  0  0  0  0
   91.0307   94.7252  -53.6948 H   0  0  0  1  0  1  0  0  0  0  0  0
   93.6818   93.5405  -51.3672 H   0  0  0  1  0  1  0  0  0  0  0  0
   93.3489   94.3607  -52.9302 H   0  0  0  1  0  1  0  0  0  0  0  0
   93.1760   92.5772  -52.7974 H   0  0  0  1  0  1  0  0  0  0  0  0
  1  7  1  0  0  0  0
  1 23  1  0  0  0  0
  1 34  1  0  0  0  0
  2 10  1  0  0  0  0
  2 11  1  0  0  0  0
  2 22  1  0  0  0  0
  2 35  1  0  0  0  0
  3 16  1  0  0  0  0
  3 17  1  0  0  0  0
  3 19  1  0  0  0  0
  3 40  1  0  0  0  0
  4  5  1  0  0  0  0
  4  9  2  0  0  0  0
  4 12  1  0  0  0  0
  5  6  3  0  0  0  0
  6  7  1  0  0  0  0
  7 32  1  0  0  0  0
  7 33  1  0  0  0  0
  8 10  1  0  0  0  0
  8 12  2  0  0  0  0
  8 14  1  0  0  0  0
  9 13  1  0  0  0  0
  9 37  1  0  0  0  0
 10 38  1  0  0  0  0
 10 39  1  0  0  0  0
 11 15  1  0  0  0  0
 11 41  1  0  0  0  0
 11 42  1  0  0  0  0
 12 43  1  0  0  0  0
 13 14  2  0  0  0  0
 13 31  1  0  0  0  0
 14 28  1  0  0  0  0
 15 16  1  0  0  0  0
 15 44  1  0  0  0  0
 15 45  1  0  0  0  0
 16 21  1  0  0  0  0
 16 46  1  0  0  0  0
 17 18  1  0  0  0  0
 17 47  1  0  0  0  0
 17 48  1  0  0  0  0
 18 49  1  0  0  0  0
 18 50  1  0  0  0  0
 18 51  1  0  0  0  0
 19 20  1  0  0  0  0
 19 52  1  0  0  0  0
 19 53  1  0  0  0  0
 20 54  1  0  0  0  0
 20 55  1  0  0  0  0
 20 56  1  0  0  0  0
 21 22  1  0  0  0  0
 21 57  1  0  0  0  0
 21 58  1  0  0  0  0
 22 59  1  0  0  0  0
 22 60  1  0  0  0  0
 23 29  1  0  0  0  0
 23 30  2  0  0  0  0
 24 25  1  0  0  0  0
 24 26  1  0  0  0  0
 24 27  1  0  0  0  0
 24 29  1  0  0  0  0
 25 61  1  0  0  0  0
 25 62  1  0  0  0  0
 25 63  1  0  0  0  0
 26 64  1  0  0  0  0
 26 65  1  0  0  0  0
 26 66  1  0  0  0  0
 27 67  1  0  0  0  0
 27 68  1  0  0  0  0
 27 69  1  0  0  0  0
 28 36  1  0  0  0  0
M  END
> <ConfScore>
-0.623147 

$$$$
4ago


 69 70  0  0  0  0  0  0  0  0999 V2000
    0.8551    7.0207   -0.1982 N   0  0  0  1  0  3  0  0  0  0  0  0
    1.8969    5.9902    7.3932 N   0  3  0  1  0  4  0  0  0  0  0  0
   -1.5996    5.1247    8.3353 N   0  3  0  1  0  4  0  0  0  0  0  0
    1.0304    3.8802    3.3154 C   0  0  0  1  0  3  0  0  0  0  0  0
    0.7654    4.4745    2.0471 C   0  0  0  1  0  2  0  0  0  0  0  0
    0.5683    5.0206    1.0025 C   0  0  0  1  0  2  0  0  0  0  0  0
    0.3208    5.6796   -0.2832 C   0  0  0  1  0  4  0  0  0  0  0  0
    2.0257    4.2230    5.4966 C   0  0  0  1  0  3  0  0  0  0  0  0
    0.6701    2.5722    3.6509 C   0  0  0  1  0  3  0  0  0  0  0  0
    2.7438    5.1386    6.4710 C   0  0  0  1  0  4  0  0  0  0  0  0
    0.6450    6.4379    6.6684 C   0  0  0  1  0  4  0  0  0  0  0  0
    1.7180    4.7025    4.2270 C   0  0  0  1  0  3  0  0  0  0  0  0
    0.9887    2.1154    4.9294 C   0  0  0  1  0  3  0  0  0  0  0  0
    1.6660    2.9053    5.8735 C   0  0  0  1  0  3  0  0  0  0  0  0
   -0.3315    7.1406    7.5870 C   0  0  0  1  0  4  0  0  0  0  0  0
   -0.7239    6.3054    8.7953 C   0  0  0  1  0  4  0  0  0  0  0  0
   -1.6749    3.9561    9.3256 C   0  0  0  1  0  4  0  0  0  0  0  0
   -2.1504    2.7159    8.5915 C   0  0  0  1  0  4  0  0  0  0  0  0
   -2.9474    5.4170    7.6861 C   0  0  0  1  0  4  0  0  0  0  0  0
   -3.7234    4.1812    7.2463 C   0  0  0  1  0  4  0  0  0  0  0  0
    0.5171    5.7702    9.4857 C   0  0  0  1  0  4  0  0  0  0  0  0
    1.4838    5.0907    8.5350 C   0  0  0  1  0  4  0  0  0  0  0  0
    2.1795    7.2431    0.0492 C   0  0  0  1  0  3  0  0  0  0  0  0
    3.7242    9.1322    0.2561 C   0  0  0  1  0  4  0  0  0  0  0  0
    3.5112   10.6483    0.1761 C   0  0  0  1  0  4  0  0  0  0  0  0
    4.6791    8.7310   -0.8762 C   0  0  0  1  0  4  0  0  0  0  0  0
    4.2874    8.7640    1.6342 C   0  0  0  1  0  4  0  0  0  0  0  0
    1.9913    2.4605    7.1160 O   0  0  0  1  0  2  0  0  0  0  0  0
    2.3921    8.5805    0.0736 O   0  0  0  1  0  2  0  0  0  0  0  0
    3.0112    6.3558    0.1679 O   0  0  0  1  0  1  0  0  0  0  0  0
    0.4394    0.1357    5.4996 I   0  0  0  1  0  1  0  0  0  0  0  0
   -0.7598    5.7189   -0.4823 H   0  0  0  1  0  1  0  0  0  0  0  0
    0.8222    5.1271   -1.0907 H   0  0  0  1  0  1  0  0  0  0  0  0
    0.2431    7.8014   -0.3229 H   0  0  0  1  0  1  0  0  0  0  0  0
    2.4061    6.8017    7.7058 H   0  0  0  1  0  1  0  0  0  0  0  0
    1.6862    1.5662    7.2212 H   0  0  0  1  0  1  0  0  0  0  0  0
    0.1590    1.9331    2.9388 H   0  0  0  1  0  1  0  0  0  0  0  0
    3.3847    4.5064    7.1042 H   0  0  0  1  0  1  0  0  0  0  0  0
    3.3717    5.8210    5.8784 H   0  0  0  1  0  1  0  0  0  0  0  0
   -1.0634    4.7499    7.5696 H   0  0  0  1  0  1  0  0  0  0  0  0
    0.1514    5.5546    6.2370 H   0  0  0  1  0  1  0  0  0  0  0  0
    0.9315    7.1290    5.8619 H   0  0  0  1  0  1  0  0  0  0  0  0
    2.0067    5.7069    3.9417 H   0  0  0  1  0  1  0  0  0  0  0  0
   -1.2411    7.3770    7.0153 H   0  0  0  1  0  1  0  0  0  0  0  0
    0.1318    8.0731    7.9422 H   0  0  0  1  0  1  0  0  0  0  0  0
   -1.2915    6.9307    9.5009 H   0  0  0  1  0  1  0  0  0  0  0  0
   -2.3814    4.2006   10.1324 H   0  0  0  1  0  1  0  0  0  0  0  0
   -0.6783    3.7711    9.7541 H   0  0  0  1  0  1  0  0  0  0  0  0
   -1.4424    2.4727    7.7848 H   0  0  0  1  0  1  0  0  0  0  0  0
   -3.1458    2.9027    8.1622 H   0  0  0  1  0  1  0  0  0  0  0  0
   -2.2068    1.8723    9.2955 H   0  0  0  1  0  1  0  0  0  0  0  0
   -2.7710    6.0440    6.7986 H   0  0  0  1  0  1  0  0  0  0  0  0
   -3.5633    5.9697    8.4100 H   0  0  0  1  0  1  0  0  0  0  0  0
   -4.6768    4.4904    6.7926 H   0  0  0  1  0  1  0  0  0  0  0  0
   -3.9229    3.5443    8.1205 H   0  0  0  1  0  1  0  0  0  0  0  0
   -3.1318    3.6183    6.5097 H   0  0  0  1  0  1  0  0  0  0  0  0
    0.2059    5.0410   10.2476 H   0  0  0  1  0  1  0  0  0  0  0  0
    1.0366    6.6100    9.9714 H   0  0  0  1  0  1  0  0  0  0  0  0
    2.3834    4.7967    9.0964 H   0  0  0  1  0  1  0  0  0  0  0  0
    1.0001    4.1940    8.1209 H   0  0  0  1  0  1  0  0  0  0  0  0
    3.0753   10.9063   -0.7996 H   0  0  0  1  0  1  0  0  0  0  0  0
    4.4763   11.1614    0.2925 H   0  0  0  1  0  1  0  0  0  0  0  0
    2.8283   10.9651    0.9773 H   0  0  0  1  0  1  0  0  0  0  0  0
    5.6703    9.1714   -0.6930 H   0  0  0  1  0  1  0  0  0  0  0  0
    4.2866    9.0997   -1.8357 H   0  0  0  1  0  1  0  0  0  0  0  0
    4.7647    7.6357   -0.9127 H   0  0  0  1  0  1  0  0  0  0  0  0
    4.4472    7.6767    1.6863 H   0  0  0  1  0  1  0  0  0  0  0  0
    3.5748    9.0678    2.4146 H   0  0  0  1  0  1  0  0  0  0  0  0
    5.2453    9.2834    1.7890 H   0  0  0  1  0  1  0  0  0  0  0  0
  1  7  1  0  0  0  0
  1 23  1  0  0  0  0
  1 34  1  0  0  0  0
  2 10  1  0  0  0  0
  2 11  1  0  0  0  0
  2 22  1  0  0  0  0
  2 35  1  0  0  0  0
  3 16  1  0  0  0  0
  3 17  1  0  0  0  0
  3 19  1  0  0  0  0
  3 40  1  0  0  0  0
  4  5  1  0  0  0  0
  4  9  2  0  0  0  0
  4 12  1  0  0  0  0
  5  6  3  0  0  0  0
  6  7  1  0  0  0  0
  7 32  1  0  0  0  0
  7 33  1  0  0  0  0
  8 10  1  0  0  0  0
  8 12  2  0  0  0  0
  8 14  1  0  0  0  0
  9 13  1  0  0  0  0
  9 37  1  0  0  0  0
 10 38  1  0  0  0  0
 10 39  1  0  0  0  0
 11 15  1  0  0  0  0
 11 41  1  0  0  0  0
 11 42  1  0  0  0  0
 12 43  1  0  0  0  0
 13 14  2  0  0  0  0
 13 31  1  0  0  0  0
 14 28  1  0  0  0  0
 15 16  1  0  0  0  0
 15 44  1  0  0  0  0
 15 45  1  0  0  0  0
 16 21  1  0  0  0  0
 16 46  1  0  0  0  0
 17 18  1  0  0  0  0
 17 47  1  0  0  0  0
 17 48  1  0  0  0  0
 18 49  1  0  0  0  0
 18 50  1  0  0  0  0
 18 51  1  0  0  0  0
 19 20  1  0  0  0  0
 19 52  1  0  0  0  0
 19 53  1  0  0  0  0
 20 54  1  0  0  0  0
 20 55  1  0  0  0  0
 20 56  1  0  0  0  0
 21 22  1  0  0  0  0
 21 57  1  0  0  0  0
 21 58  1  0  0  0  0
 22 59  1  0  0  0  0
 22 60  1  0  0  0  0
 23 29  1  0  0  0  0
 23 30  2  0  0  0  0
 24 25  1  0  0  0  0
 24 26  1  0  0  0  0
 24 27  1  0  0  0  0
 24 29  1  0  0  0  0
 25 61  1  0  0  0  0
 25 62  1  0  0  0  0
 25 63  1  0  0  0  0
 26 64  1  0  0  0  0
 26 65  1  0  0  0  0
 26 66  1  0  0  0  0
 27 67  1  0  0  0  0
 27 68  1  0  0  0  0
 27 69  1  0  0  0  0
 28 36  1  0  0  0  0
M  END
> <ConfScore>
-0.622546 

$$$$
4ago


 69 70  0  0  0  0  0  0  0  0999 V2000
   91.1554   91.2821  -49.2504 N   0  0  0  1  0  3  0  0  0  0  0  0
   90.3683   98.3703  -44.5750 N   0  3  0  1  0  4  0  0  0  0  0  0
   92.2965  102.1278  -43.7275 N   0  3  0  1  0  4  0  0  0  0  0  0
   91.2337   93.6144  -45.1525 C   0  0  0  1  0  3  0  0  0  0  0  0
   91.3933   92.5817  -46.1220 C   0  0  0  1  0  2  0  0  0  0  0  0
   91.5051   91.7512  -46.9740 C   0  0  0  1  0  2  0  0  0  0  0  0
   91.6473   90.7242  -48.0102 C   0  0  0  1  0  4  0  0  0  0  0  0
   90.5014   95.8938  -44.7858 C   0  0  0  1  0  3  0  0  0  0  0  0
   91.5924   93.4805  -43.8084 C   0  0  0  1  0  3  0  0  0  0  0  0
   89.9050   97.1660  -45.3350 C   0  0  0  1  0  4  0  0  0  0  0  0
   89.7773   99.6388  -45.1311 C   0  0  0  1  0  4  0  0  0  0  0  0
   90.7019   94.8197  -45.6475 C   0  0  0  1  0  3  0  0  0  0  0  0
   91.3808   94.5707  -42.9650 C   0  0  0  1  0  3  0  0  0  0  0  0
   90.8444   95.7888  -43.4150 C   0  0  0  1  0  3  0  0  0  0  0  0
   90.2381  100.8197  -44.2908 C   0  0  0  1  0  4  0  0  0  0  0  0
   91.7591  100.8630  -44.4231 C   0  0  0  1  0  4  0  0  0  0  0  0
   93.7191  102.5305  -44.1355 C   0  0  0  1  0  4  0  0  0  0  0  0
   94.1146  103.7841  -43.3771 C   0  0  0  1  0  4  0  0  0  0  0  0
   91.3765  103.3342  -43.5803 C   0  0  0  1  0  4  0  0  0  0  0  0
   90.9244  103.9543  -44.8971 C   0  0  0  1  0  4  0  0  0  0  0  0
   92.3754   99.6202  -43.7663 C   0  0  0  1  0  4  0  0  0  0  0  0
   91.8687   98.4061  -44.5276 C   0  0  0  1  0  4  0  0  0  0  0  0
   90.1362   92.1908  -49.2653 C   0  0  0  1  0  3  0  0  0  0  0  0
   88.8916   93.5381  -50.8882 C   0  0  0  1  0  4  0  0  0  0  0  0
   87.6077   93.0188  -50.2308 C   0  0  0  1  0  4  0  0  0  0  0  0
   88.6438   93.6259  -52.4000 C   0  0  0  1  0  4  0  0  0  0  0  0
   89.2599   94.9017  -50.2907 C   0  0  0  1  0  4  0  0  0  0  0  0
   90.6489   96.8591  -42.6002 O   0  0  0  1  0  2  0  0  0  0  0  0
   89.8886   92.5357  -50.5515 O   0  0  0  1  0  2  0  0  0  0  0  0
   89.6009   92.6344  -48.2605 O   0  0  0  1  0  1  0  0  0  0  0  0
   91.8884   94.4097  -40.9004 I   0  0  0  1  0  1  0  0  0  0  0  0
   91.0592   89.8353  -47.7401 H   0  0  0  1  0  1  0  0  0  0  0  0
   92.7050   90.4445  -48.1187 H   0  0  0  1  0  1  0  0  0  0  0  0
   91.5693   90.9972  -50.1147 H   0  0  0  1  0  1  0  0  0  0  0  0
   90.0347   98.3007  -43.6266 H   0  0  0  1  0  1  0  0  0  0  0  0
   90.9232   96.6382  -41.7172 H   0  0  0  1  0  1  0  0  0  0  0  0
   92.0220   92.5575  -43.4340 H   0  0  0  1  0  1  0  0  0  0  0  0
   90.2035   97.2734  -46.3890 H   0  0  0  1  0  1  0  0  0  0  0  0
   88.8083   97.1030  -45.2684 H   0  0  0  1  0  1  0  0  0  0  0  0
   92.4042  101.8159  -42.7761 H   0  0  0  1  0  1  0  0  0  0  0  0
   88.6795   99.5751  -45.1039 H   0  0  0  1  0  1  0  0  0  0  0  0
   90.1117   99.7749  -46.1702 H   0  0  0  1  0  1  0  0  0  0  0  0
   90.4485   94.9112  -46.6968 H   0  0  0  1  0  1  0  0  0  0  0  0
   89.9501  100.6757  -43.2389 H   0  0  0  1  0  1  0  0  0  0  0  0
   89.7951  101.7533  -44.6684 H   0  0  0  1  0  1  0  0  0  0  0  0
   92.0322  100.8858  -45.4890 H   0  0  0  1  0  1  0  0  0  0  0  0
   93.7512  102.7283  -45.2170 H   0  0  0  1  0  1  0  0  0  0  0  0
   94.4174  101.7161  -43.8905 H   0  0  0  1  0  1  0  0  0  0  0  0
   93.4145  104.5973  -43.6216 H   0  0  0  1  0  1  0  0  0  0  0  0
   95.1348  104.0797  -43.6636 H   0  0  0  1  0  1  0  0  0  0  0  0
   94.0804  103.5845  -42.2957 H   0  0  0  1  0  1  0  0  0  0  0  0
   91.9123  104.1050  -43.0053 H   0  0  0  1  0  1  0  0  0  0  0  0
   90.4821  103.0168  -43.0251 H   0  0  0  1  0  1  0  0  0  0  0  0
   90.3903  103.1988  -45.4926 H   0  0  0  1  0  1  0  0  0  0  0  0
   91.8034  104.3072  -45.4561 H   0  0  0  1  0  1  0  0  0  0  0  0
   90.2542  104.8022  -44.6936 H   0  0  0  1  0  1  0  0  0  0  0  0
   92.0660   99.5593  -42.7129 H   0  0  0  1  0  1  0  0  0  0  0  0
   93.4733   99.6694  -43.8245 H   0  0  0  1  0  1  0  0  0  0  0  0
   92.2576   98.4419  -45.5564 H   0  0  0  1  0  1  0  0  0  0  0  0
   92.2318   97.4954  -44.0294 H   0  0  0  1  0  1  0  0  0  0  0  0
   86.7813   93.7125  -50.4417 H   0  0  0  1  0  1  0  0  0  0  0  0
   87.7553   92.9455  -49.1440 H   0  0  0  1  0  1  0  0  0  0  0  0
   87.3644   92.0261  -50.6357 H   0  0  0  1  0  1  0  0  0  0  0  0
   89.5813   93.8921  -52.9102 H   0  0  0  1  0  1  0  0  0  0  0  0
   87.8848   94.3961  -52.6037 H   0  0  0  1  0  1  0  0  0  0  0  0
   88.2871   92.6542  -52.7700 H   0  0  0  1  0  1  0  0  0  0  0  0
   89.3031   94.8218  -49.1942 H   0  0  0  1  0  1  0  0  0  0  0  0
   88.4998   95.6438  -50.5746 H   0  0  0  1  0  1  0  0  0  0  0  0
   90.2422   95.2165  -50.6746 H   0  0  0  1  0  1  0  0  0  0  0  0
  1  7  1  0  0  0  0
  1 23  1  0  0  0  0
  1 34  1  0  0  0  0
  2 10  1  0  0  0  0
  2 11  1  0  0  0  0
  2 22  1  0  0  0  0
  2 35  1  0  0  0  0
  3 16  1  0  0  0  0
  3 17  1  0  0  0  0
  3 19  1  0  0  0  0
  3 40  1  0  0  0  0
  4  5  1  0  0  0  0
  4  9  2  0  0  0  0
  4 12  1  0  0  0  0
  5  6  3  0  0  0  0
  6  7  1  0  0  0  0
  7 32  1  0  0  0  0
  7 33  1  0  0  0  0
  8 10  1  0  0  0  0
  8 12  2  0  0  0  0
  8 14  1  0  0  0  0
  9 13  1  0  0  0  0
  9 37  1  0  0  0  0
 10 38  1  0  0  0  0
 10 39  1  0  0  0  0
 11 15  1  0  0  0  0
 11 41  1  0  0  0  0
 11 42  1  0  0  0  0
 12 43  1  0  0  0  0
 13 14  2  0  0  0  0
 13 31  1  0  0  0  0
 14 28  1  0  0  0  0
 15 16  1  0  0  0  0
 15 44  1  0  0  0  0
 15 45  1  0  0  0  0
 16 21  1  0  0  0  0
 16 46  1  0  0  0  0
 17 18  1  0  0  0  0
 17 47  1  0  0  0  0
 17 48  1  0  0  0  0
 18 49  1  0  0  0  0
 18 50  1  0  0  0  0
 18 51  1  0  0  0  0
 19 20  1  0  0  0  0
 19 52  1  0  0  0  0
 19 53  1  0  0  0  0
 20 54  1  0  0  0  0
 20 55  1  0  0  0  0
 20 56  1  0  0  0  0
 21 22  1  0  0  0  0
 21 57  1  0  0  0  0
 21 58  1  0  0  0  0
 22 59  1  0  0  0  0
 22 60  1  0  0  0  0
 23 29  1  0  0  0  0
 23 30  2  0  0  0  0
 24 25  1  0  0  0  0
 24 26  1  0  0  0  0
 24 27  1  0  0  0  0
 24 29  1  0  0  0  0
 25 61  1  0  0  0  0
 25 62  1  0  0  0  0
 25 63  1  0  0  0  0
 26 64  1  0  0  0  0
 26 65  1  0  0  0  0
 26 66  1  0  0  0  0
 27 67  1  0  0  0  0
 27 68  1  0  0  0  0
 27 69  1  0  0  0  0
 28 36  1  0  0  0  0
M  END
> <ConfScore>
-0.622491 

$$$$
4ago


 69 70  0  0  0  0  0  0  0  0999 V2000
    7.6894   -1.3659   35.3220 N   0  0  0  1  0  3  0  0  0  0  0  0
    5.1147    2.7520   29.4735 N   0  3  0  1  0  4  0  0  0  0  0  0
    3.5559    0.1678   31.5532 N   0  3  0  1  0  4  0  0  0  0  0  0
    8.5930    1.3120   31.5470 C   0  0  0  1  0  3  0  0  0  0  0  0
    8.4906    0.8759   32.9002 C   0  0  0  1  0  2  0  0  0  0  0  0
    8.3827    0.4609   34.0157 C   0  0  0  1  0  2  0  0  0  0  0  0
    8.2554   -0.0368   35.3886 C   0  0  0  1  0  4  0  0  0  0  0  0
    7.6270    2.3630   29.6260 C   0  0  0  1  0  3  0  0  0  0  0  0
    9.7440    1.0760   30.8280 C   0  0  0  1  0  3  0  0  0  0  0  0
    6.4640    3.0610   28.9950 C   0  0  0  1  0  4  0  0  0  0  0  0
    4.7255    1.4228   28.9769 C   0  0  0  1  0  4  0  0  0  0  0  0
    7.5450    1.9700   30.9520 C   0  0  0  1  0  3  0  0  0  0  0  0
    9.8450    1.4950   29.5070 C   0  0  0  1  0  3  0  0  0  0  0  0
    8.7880    2.1430   28.9040 C   0  0  0  1  0  3  0  0  0  0  0  0
    3.2643    1.1943   29.2929 C   0  0  0  1  0  4  0  0  0  0  0  0
    2.9612    1.3652   30.7882 C   0  0  0  1  0  4  0  0  0  0  0  0
    3.1306   -1.2078   31.0249 C   0  0  0  1  0  4  0  0  0  0  0  0
    1.6191   -1.2408   30.8927 C   0  0  0  1  0  4  0  0  0  0  0  0
    5.0281    0.2034   31.9467 C   0  0  0  1  0  4  0  0  0  0  0  0
    5.4583    1.4636   32.6882 C   0  0  0  1  0  4  0  0  0  0  0  0
    3.5512    2.6532   31.3587 C   0  0  0  1  0  4  0  0  0  0  0  0
    5.0033    2.8057   30.9436 C   0  0  0  1  0  4  0  0  0  0  0  0
    6.4990   -1.6617   35.9223 C   0  0  0  1  0  3  0  0  0  0  0  0
    4.9793   -3.5670   36.1631 C   0  0  0  1  0  4  0  0  0  0  0  0
    3.8887   -2.7867   35.4201 C   0  0  0  1  0  4  0  0  0  0  0  0
    4.7634   -3.3596   37.6682 C   0  0  0  1  0  4  0  0  0  0  0  0
    4.9060   -5.0489   35.7754 C   0  0  0  1  0  4  0  0  0  0  0  0
    8.8845    2.5615   27.6143 O   0  0  0  1  0  2  0  0  0  0  0  0
    6.2187   -2.9676   35.6976 O   0  0  0  1  0  2  0  0  0  0  0  0
    5.8065   -0.8428   36.5078 O   0  0  0  1  0  1  0  0  0  0  0  0
   11.6378    1.1351   28.4106 I   0  0  0  1  0  1  0  0  0  0  0  0
    7.5933    0.6237   35.9668 H   0  0  0  1  0  1  0  0  0  0  0  0
    9.2443   -0.0743   35.8673 H   0  0  0  1  0  1  0  0  0  0  0  0
    8.1789   -2.0833   34.8267 H   0  0  0  1  0  1  0  0  0  0  0  0
    4.4899    3.4573   29.1163 H   0  0  0  1  0  1  0  0  0  0  0  0
    9.1980    3.4588   27.5961 H   0  0  0  1  0  1  0  0  0  0  0  0
   10.5760    0.5603   31.2955 H   0  0  0  1  0  1  0  0  0  0  0  0
    6.6186    4.1414   29.1372 H   0  0  0  1  0  1  0  0  0  0  0  0
    6.4886    2.8247   27.9205 H   0  0  0  1  0  1  0  0  0  0  0  0
    3.0888    0.2327   32.4430 H   0  0  0  1  0  1  0  0  0  0  0  0
    5.3353    0.6510   29.4692 H   0  0  0  1  0  1  0  0  0  0  0  0
    4.8804    1.3747   27.8889 H   0  0  0  1  0  1  0  0  0  0  0  0
    6.6491    2.1830   31.5226 H   0  0  0  1  0  1  0  0  0  0  0  0
    2.9922    0.1722   28.9908 H   0  0  0  1  0  1  0  0  0  0  0  0
    2.6615    1.9180   28.7243 H   0  0  0  1  0  1  0  0  0  0  0  0
    1.8697    1.3846   30.9275 H   0  0  0  1  0  1  0  0  0  0  0  0
    3.4565   -1.9897   31.7264 H   0  0  0  1  0  1  0  0  0  0  0  0
    3.5903   -1.3831   30.0405 H   0  0  0  1  0  1  0  0  0  0  0  0
    1.1607   -1.0809   31.8804 H   0  0  0  1  0  1  0  0  0  0  0  0
    1.3067   -2.2186   30.4971 H   0  0  0  1  0  1  0  0  0  0  0  0
    1.2939   -0.4459   30.2052 H   0  0  0  1  0  1  0  0  0  0  0  0
    5.6298    0.1247   31.0282 H   0  0  0  1  0  1  0  0  0  0  0  0
    5.2304   -0.6620   32.5940 H   0  0  0  1  0  1  0  0  0  0  0  0
    4.8648    1.5665   33.6090 H   0  0  0  1  0  1  0  0  0  0  0  0
    5.2929    2.3406   32.0456 H   0  0  0  1  0  1  0  0  0  0  0  0
    6.5253    1.3930   32.9453 H   0  0  0  1  0  1  0  0  0  0  0  0
    3.4904    2.6233   32.4562 H   0  0  0  1  0  1  0  0  0  0  0  0
    2.9755    3.5123   30.9822 H   0  0  0  1  0  1  0  0  0  0  0  0
    5.3856    3.7729   31.3031 H   0  0  0  1  0  1  0  0  0  0  0  0
    5.5956    1.9903   31.3839 H   0  0  0  1  0  1  0  0  0  0  0  0
    2.9005   -3.1719   35.7096 H   0  0  0  1  0  1  0  0  0  0  0  0
    4.0248   -2.9073   34.3360 H   0  0  0  1  0  1  0  0  0  0  0  0
    3.9572   -1.7213   35.6822 H   0  0  0  1  0  1  0  0  0  0  0  0
    4.7266   -2.2824   37.8881 H   0  0  0  1  0  1  0  0  0  0  0  0
    5.5940   -3.8187   38.2251 H   0  0  0  1  0  1  0  0  0  0  0  0
    3.8166   -3.8291   37.9708 H   0  0  0  1  0  1  0  0  0  0  0  0
    4.9371   -5.1431   34.6796 H   0  0  0  1  0  1  0  0  0  0  0  0
    3.9685   -5.4811   36.1541 H   0  0  0  1  0  1  0  0  0  0  0  0
    5.7613   -5.5849   36.2141 H   0  0  0  1  0  1  0  0  0  0  0  0
  1  7  1  0  0  0  0
  1 23  1  0  0  0  0
  1 34  1  0  0  0  0
  2 10  1  0  0  0  0
  2 11  1  0  0  0  0
  2 22  1  0  0  0  0
  2 35  1  0  0  0  0
  3 16  1  0  0  0  0
  3 17  1  0  0  0  0
  3 19  1  0  0  0  0
  3 40  1  0  0  0  0
  4  5  1  0  0  0  0
  4  9  2  0  0  0  0
  4 12  1  0  0  0  0
  5  6  3  0  0  0  0
  6  7  1  0  0  0  0
  7 32  1  0  0  0  0
  7 33  1  0  0  0  0
  8 10  1  0  0  0  0
  8 12  2  0  0  0  0
  8 14  1  0  0  0  0
  9 13  1  0  0  0  0
  9 37  1  0  0  0  0
 10 38  1  0  0  0  0
 10 39  1  0  0  0  0
 11 15  1  0  0  0  0
 11 41  1  0  0  0  0
 11 42  1  0  0  0  0
 12 43  1  0  0  0  0
 13 14  2  0  0  0  0
 13 31  1  0  0  0  0
 14 28  1  0  0  0  0
 15 16  1  0  0  0  0
 15 44  1  0  0  0  0
 15 45  1  0  0  0  0
 16 21  1  0  0  0  0
 16 46  1  0  0  0  0
 17 18  1  0  0  0  0
 17 47  1  0  0  0  0
 17 48  1  0  0  0  0
 18 49  1  0  0  0  0
 18 50  1  0  0  0  0
 18 51  1  0  0  0  0
 19 20  1  0  0  0  0
 19 52  1  0  0  0  0
 19 53  1  0  0  0  0
 20 54  1  0  0  0  0
 20 55  1  0  0  0  0
 20 56  1  0  0  0  0
 21 22  1  0  0  0  0
 21 57  1  0  0  0  0
 21 58  1  0  0  0  0
 22 59  1  0  0  0  0
 22 60  1  0  0  0  0
 23 29  1  0  0  0  0
 23 30  2  0  0  0  0
 24 25  1  0  0  0  0
 24 26  1  0  0  0  0
 24 27  1  0  0  0  0
 24 29  1  0  0  0  0
 25 61  1  0  0  0  0
 25 62  1  0  0  0  0
 25 63  1  0  0  0  0
 26 64  1  0  0  0  0
 26 65  1  0  0  0  0
 26 66  1  0  0  0  0
 27 67  1  0  0  0  0
 27 68  1  0  0  0  0
 27 69  1  0  0  0  0
 28 36  1  0  0  0  0
M  END
> <ConfScore>
-0.602555 

$$$$
4ago


 69 70  0  0  0  0  0  0  0  0999 V2000
   92.2843   89.4622  -47.1258 N   0  0  0  1  0  3  0  0  0  0  0  0
   90.4980   98.3810  -44.6910 N   0  3  0  1  0  4  0  0  0  0  0  0
   91.3200  102.5256  -43.8535 N   0  3  0  1  0  4  0  0  0  0  0  0
   91.2337   93.6144  -45.1525 C   0  0  0  1  0  3  0  0  0  0  0  0
   91.3933   92.5817  -46.1220 C   0  0  0  1  0  2  0  0  0  0  0  0
   91.5479   91.6822  -46.8934 C   0  0  0  1  0  2  0  0  0  0  0  0
   91.7328   90.5863  -47.8493 C   0  0  0  1  0  4  0  0  0  0  0  0
   90.5014   95.8938  -44.7858 C   0  0  0  1  0  3  0  0  0  0  0  0
   91.5924   93.4805  -43.8084 C   0  0  0  1  0  3  0  0  0  0  0  0
   89.9050   97.1660  -45.3350 C   0  0  0  1  0  4  0  0  0  0  0  0
   89.4487   99.2108  -43.9997 C   0  0  0  1  0  4  0  0  0  0  0  0
   90.7019   94.8197  -45.6475 C   0  0  0  1  0  3  0  0  0  0  0  0
   91.3808   94.5707  -42.9650 C   0  0  0  1  0  3  0  0  0  0  0  0
   90.8444   95.7888  -43.4150 C   0  0  0  1  0  3  0  0  0  0  0  0
   90.1126  100.3988  -43.3207 C   0  0  0  1  0  4  0  0  0  0  0  0
   90.7573  101.2164  -44.4381 C   0  0  0  1  0  4  0  0  0  0  0  0
   91.6037  103.6219  -44.8879 C   0  0  0  1  0  4  0  0  0  0  0  0
   92.4332  103.0352  -46.0152 C   0  0  0  1  0  4  0  0  0  0  0  0
   90.7059  103.0850  -42.5754 C   0  0  0  1  0  4  0  0  0  0  0  0
   89.3655  103.7846  -42.7667 C   0  0  0  1  0  4  0  0  0  0  0  0
   91.8975  100.4144  -45.0803 C   0  0  0  1  0  4  0  0  0  0  0  0
   91.2838   99.1690  -45.6991 C   0  0  0  1  0  4  0  0  0  0  0  0
   91.5804   88.8420  -46.1336 C   0  0  0  1  0  3  0  0  0  0  0  0
   91.8390   86.9588  -44.5894 C   0  0  0  1  0  4  0  0  0  0  0  0
   91.4468   87.9197  -43.4611 C   0  0  0  1  0  4  0  0  0  0  0  0
   92.9272   86.0204  -44.0510 C   0  0  0  1  0  4  0  0  0  0  0  0
   90.6010   86.1856  -45.0599 C   0  0  0  1  0  4  0  0  0  0  0  0
   90.6489   96.8591  -42.6002 O   0  0  0  1  0  2  0  0  0  0  0  0
   92.3365   87.8334  -45.6381 O   0  0  0  1  0  2  0  0  0  0  0  0
   90.4399   89.1423  -45.8141 O   0  0  0  1  0  1  0  0  0  0  0  0
   91.8884   94.4097  -40.9004 I   0  0  0  1  0  1  0  0  0  0  0  0
   92.4256   90.8960  -48.6450 H   0  0  0  1  0  1  0  0  0  0  0  0
   90.7661   90.3084  -48.2931 H   0  0  0  1  0  1  0  0  0  0  0  0
   93.1994   89.1319  -47.3562 H   0  0  0  1  0  1  0  0  0  0  0  0
   91.1369   98.0842  -43.9704 H   0  0  0  1  0  1  0  0  0  0  0  0
   90.9232   96.6382  -41.7172 H   0  0  0  1  0  1  0  0  0  0  0  0
   92.0220   92.5575  -43.4340 H   0  0  0  1  0  1  0  0  0  0  0  0
   90.0937   97.2091  -46.4185 H   0  0  0  1  0  1  0  0  0  0  0  0
   88.8200   97.1591  -45.1511 H   0  0  0  1  0  1  0  0  0  0  0  0
   92.2386  102.2443  -43.5513 H   0  0  0  1  0  1  0  0  0  0  0  0
   88.9338   98.5976  -43.2455 H   0  0  0  1  0  1  0  0  0  0  0  0
   88.7193   99.5715  -44.7400 H   0  0  0  1  0  1  0  0  0  0  0  0
   90.4485   94.9112  -46.6968 H   0  0  0  1  0  1  0  0  0  0  0  0
   90.8777  100.0538  -42.6096 H   0  0  0  1  0  1  0  0  0  0  0  0
   89.3627  101.0031  -42.7889 H   0  0  0  1  0  1  0  0  0  0  0  0
   90.0006  101.4507  -45.2021 H   0  0  0  1  0  1  0  0  0  0  0  0
   92.1577  104.4443  -44.4119 H   0  0  0  1  0  1  0  0  0  0  0  0
   90.6533  104.0041  -45.2902 H   0  0  0  1  0  1  0  0  0  0  0  0
   93.3898  102.6674  -45.6141 H   0  0  0  1  0  1  0  0  0  0  0  0
   92.6261  103.8110  -46.7709 H   0  0  0  1  0  1  0  0  0  0  0  0
   91.8852  102.2007  -46.4775 H   0  0  0  1  0  1  0  0  0  0  0  0
   91.4128  103.8113  -42.1455 H   0  0  0  1  0  1  0  0  0  0  0  0
   90.5614  102.2522  -41.8722 H   0  0  0  1  0  1  0  0  0  0  0  0
   88.6431  103.0780  -43.2018 H   0  0  0  1  0  1  0  0  0  0  0  0
   89.4935  104.6416  -43.4441 H   0  0  0  1  0  1  0  0  0  0  0  0
   88.9930  104.1382  -41.7942 H   0  0  0  1  0  1  0  0  0  0  0  0
   92.6342  100.1299  -44.3151 H   0  0  0  1  0  1  0  0  0  0  0  0
   92.3899  101.0173  -45.8581 H   0  0  0  1  0  1  0  0  0  0  0  0
   90.6134   99.4705  -46.5179 H   0  0  0  1  0  1  0  0  0  0  0  0
   92.0890   98.5352  -46.0984 H   0  0  0  1  0  1  0  0  0  0  0  0
   91.0534   87.3451  -42.6103 H   0  0  0  1  0  1  0  0  0  0  0  0
   90.6746   88.6139  -43.8217 H   0  0  0  1  0  1  0  0  0  0  0  0
   92.3310   88.4889  -43.1405 H   0  0  0  1  0  1  0  0  0  0  0  0
   93.7532   86.6169  -43.6363 H   0  0  0  1  0  1  0  0  0  0  0  0
   93.3062   85.3897  -44.8692 H   0  0  0  1  0  1  0  0  0  0  0  0
   92.5035   85.3816  -43.2631 H   0  0  0  1  0  1  0  0  0  0  0  0
   89.8009   86.8960  -45.3165 H   0  0  0  1  0  1  0  0  0  0  0  0
   90.2565   85.5203  -44.2552 H   0  0  0  1  0  1  0  0  0  0  0  0
   90.8584   85.5869  -45.9468 H   0  0  0  1  0  1  0  0  0  0  0  0
  1  7  1  0  0  0  0
  1 23  1  0  0  0  0
  1 34  1  0  0  0  0
  2 10  1  0  0  0  0
  2 11  1  0  0  0  0
  2 22  1  0  0  0  0
  2 35  1  0  0  0  0
  3 16  1  0  0  0  0
  3 17  1  0  0  0  0
  3 19  1  0  0  0  0
  3 40  1  0  0  0  0
  4  5  1  0  0  0  0
  4  9  2  0  0  0  0
  4 12  1  0  0  0  0
  5  6  3  0  0  0  0
  6  7  1  0  0  0  0
  7 32  1  0  0  0  0
  7 33  1  0  0  0  0
  8 10  1  0  0  0  0
  8 12  2  0  0  0  0
  8 14  1  0  0  0  0
  9 13  1  0  0  0  0
  9 37  1  0  0  0  0
 10 38  1  0  0  0  0
 10 39  1  0  0  0  0
 11 15  1  0  0  0  0
 11 41  1  0  0  0  0
 11 42  1  0  0  0  0
 12 43  1  0  0  0  0
 13 14  2  0  0  0  0
 13 31  1  0  0  0  0
 14 28  1  0  0  0  0
 15 16  1  0  0  0  0
 15 44  1  0  0  0  0
 15 45  1  0  0  0  0
 16 21  1  0  0  0  0
 16 46  1  0  0  0  0
 17 18  1  0  0  0  0
 17 47  1  0  0  0  0
 17 48  1  0  0  0  0
 18 49  1  0  0  0  0
 18 50  1  0  0  0  0
 18 51  1  0  0  0  0
 19 20  1  0  0  0  0
 19 52  1  0  0  0  0
 19 53  1  0  0  0  0
 20 54  1  0  0  0  0
 20 55  1  0  0  0  0
 20 56  1  0  0  0  0
 21 22  1  0  0  0  0
 21 57  1  0  0  0  0
 21 58  1  0  0  0  0
 22 59  1  0  0  0  0
 22 60  1  0  0  0  0
 23 29  1  0  0  0  0
 23 30  2  0  0  0  0
 24 25  1  0  0  0  0
 24 26  1  0  0  0  0
 24 27  1  0  0  0  0
 24 29  1  0  0  0  0
 25 61  1  0  0  0  0
 25 62  1  0  0  0  0
 25 63  1  0  0  0  0
 26 64  1  0  0  0  0
 26 65  1  0  0  0  0
 26 66  1  0  0  0  0
 27 67  1  0  0  0  0
 27 68  1  0  0  0  0
 27 69  1  0  0  0  0
 28 36  1  0  0  0  0
M  END
> <ConfScore>
-0.598749 

$$$$
4ago


 69 70  0  0  0  0  0  0  0  0999 V2000
   92.2843   89.4622  -47.1258 N   0  0  0  1  0  3  0  0  0  0  0  0
   90.3795   98.3716  -44.5841 N   0  3  0  1  0  4  0  0  0  0  0  0
   90.9344  102.5012  -43.4913 N   0  3  0  1  0  4  0  0  0  0  0  0
   91.2337   93.6144  -45.1525 C   0  0  0  1  0  3  0  0  0  0  0  0
   91.3933   92.5817  -46.1220 C   0  0  0  1  0  2  0  0  0  0  0  0
   91.5479   91.6822  -46.8934 C   0  0  0  1  0  2  0  0  0  0  0  0
   91.7328   90.5863  -47.8493 C   0  0  0  1  0  4  0  0  0  0  0  0
   90.5014   95.8938  -44.7858 C   0  0  0  1  0  3  0  0  0  0  0  0
   91.5924   93.4805  -43.8084 C   0  0  0  1  0  3  0  0  0  0  0  0
   89.9050   97.1660  -45.3350 C   0  0  0  1  0  4  0  0  0  0  0  0
   89.2333   99.1255  -43.9633 C   0  0  0  1  0  4  0  0  0  0  0  0
   90.7019   94.8197  -45.6475 C   0  0  0  1  0  3  0  0  0  0  0  0
   91.3808   94.5707  -42.9650 C   0  0  0  1  0  3  0  0  0  0  0  0
   90.8444   95.7888  -43.4150 C   0  0  0  1  0  3  0  0  0  0  0  0
   89.7762  100.3053  -43.1719 C   0  0  0  1  0  4  0  0  0  0  0  0
   90.4884  101.1999  -44.1843 C   0  0  0  1  0  4  0  0  0  0  0  0
   91.2673  103.6556  -44.4445 C   0  0  0  1  0  4  0  0  0  0  0  0
   92.2261  103.1563  -45.5097 C   0  0  0  1  0  4  0  0  0  0  0  0
   90.1765  102.9745  -42.2563 C   0  0  0  1  0  4  0  0  0  0  0  0
   88.8312  103.6289  -42.5472 C   0  0  0  1  0  4  0  0  0  0  0  0
   91.7191  100.4750  -44.7461 C   0  0  0  1  0  4  0  0  0  0  0  0
   91.2229   99.2371  -45.4754 C   0  0  0  1  0  4  0  0  0  0  0  0
   91.5804   88.8420  -46.1336 C   0  0  0  1  0  3  0  0  0  0  0  0
   91.8311   86.9455  -44.6045 C   0  0  0  1  0  4  0  0  0  0  0  0
   90.5044   86.4309  -45.1747 C   0  0  0  1  0  4  0  0  0  0  0  0
   91.5245   87.6902  -43.2983 C   0  0  0  1  0  4  0  0  0  0  0  0
   92.7853   85.7664  -44.3781 C   0  0  0  1  0  4  0  0  0  0  0  0
   90.6489   96.8591  -42.6002 O   0  0  0  1  0  2  0  0  0  0  0  0
   92.3365   87.8334  -45.6381 O   0  0  0  1  0  2  0  0  0  0  0  0
   90.4399   89.1423  -45.8141 O   0  0  0  1  0  1  0  0  0  0  0  0
   91.8884   94.4097  -40.9004 I   0  0  0  1  0  1  0  0  0  0  0  0
   92.4256   90.8960  -48.6450 H   0  0  0  1  0  1  0  0  0  0  0  0
   90.7661   90.3084  -48.2931 H   0  0  0  1  0  1  0  0  0  0  0  0
   93.1994   89.1319  -47.3562 H   0  0  0  1  0  1  0  0  0  0  0  0
   90.9588   98.0665  -43.8180 H   0  0  0  1  0  1  0  0  0  0  0  0
   90.9232   96.6382  -41.7172 H   0  0  0  1  0  1  0  0  0  0  0  0
   92.0220   92.5575  -43.4340 H   0  0  0  1  0  1  0  0  0  0  0  0
   90.1946   97.2679  -46.3920 H   0  0  0  1  0  1  0  0  0  0  0  0
   88.8087   97.1074  -45.2585 H   0  0  0  1  0  1  0  0  0  0  0  0
   91.8312  102.2424  -43.1132 H   0  0  0  1  0  1  0  0  0  0  0  0
   88.6759   98.4573  -43.2904 H   0  0  0  1  0  1  0  0  0  0  0  0
   88.5631   99.4918  -44.7550 H   0  0  0  1  0  1  0  0  0  0  0  0
   90.4485   94.9112  -46.6968 H   0  0  0  1  0  1  0  0  0  0  0  0
   90.4840   99.9576  -42.4049 H   0  0  0  1  0  1  0  0  0  0  0  0
   88.9529  100.8536  -42.6902 H   0  0  0  1  0  1  0  0  0  0  0  0
   89.7988  101.4400  -45.0077 H   0  0  0  1  0  1  0  0  0  0  0  0
   91.7364  104.4759  -43.8815 H   0  0  0  1  0  1  0  0  0  0  0  0
   90.3440  104.0185  -44.9209 H   0  0  0  1  0  1  0  0  0  0  0  0
   93.1550  102.8081  -45.0333 H   0  0  0  1  0  1  0  0  0  0  0  0
   92.4562  103.9741  -46.2086 H   0  0  0  1  0  1  0  0  0  0  0  0
   91.7621  102.3236  -46.0591 H   0  0  0  1  0  1  0  0  0  0  0  0
   90.8063  103.7071  -41.7283 H   0  0  0  1  0  1  0  0  0  0  0  0
   90.0021  102.1043  -41.6074 H   0  0  0  1  0  1  0  0  0  0  0  0
   88.1856  102.9156  -43.0810 H   0  0  0  1  0  1  0  0  0  0  0  0
   88.9857  104.5214  -43.1711 H   0  0  0  1  0  1  0  0  0  0  0  0
   88.3520  103.9209  -41.6014 H   0  0  0  1  0  1  0  0  0  0  0  0
   92.3909  100.1839  -43.9257 H   0  0  0  1  0  1  0  0  0  0  0  0
   92.2567  101.1331  -45.4453 H   0  0  0  1  0  1  0  0  0  0  0  0
   90.6214   99.5502  -46.3419 H   0  0  0  1  0  1  0  0  0  0  0  0
   92.0898   98.6552  -45.8212 H   0  0  0  1  0  1  0  0  0  0  0  0
   90.0331   85.7512  -44.4503 H   0  0  0  1  0  1  0  0  0  0  0  0
   90.6929   85.8911  -46.1134 H   0  0  0  1  0  1  0  0  0  0  0  0
   89.8345   87.2808  -45.3683 H   0  0  0  1  0  1  0  0  0  0  0  0
   90.7651   88.4634  -43.4868 H   0  0  0  1  0  1  0  0  0  0  0  0
   92.4432   88.1639  -42.9211 H   0  0  0  1  0  1  0  0  0  0  0  0
   91.1466   86.9785  -42.5506 H   0  0  0  1  0  1  0  0  0  0  0  0
   92.8775   85.1857  -45.3081 H   0  0  0  1  0  1  0  0  0  0  0  0
   92.3885   85.1215  -43.5809 H   0  0  0  1  0  1  0  0  0  0  0  0
   93.7751   86.1476  -44.0840 H   0  0  0  1  0  1  0  0  0  0  0  0
  1  7  1  0  0  0  0
  1 23  1  0  0  0  0
  1 34  1  0  0  0  0
  2 10  1  0  0  0  0
  2 11  1  0  0  0  0
  2 22  1  0  0  0  0
  2 35  1  0  0  0  0
  3 16  1  0  0  0  0
  3 17  1  0  0  0  0
  3 19  1  0  0  0  0
  3 40  1  0  0  0  0
  4  5  1  0  0  0  0
  4  9  2  0  0  0  0
  4 12  1  0  0  0  0
  5  6  3  0  0  0  0
  6  7  1  0  0  0  0
  7 32  1  0  0  0  0
  7 33  1  0  0  0  0
  8 10  1  0  0  0  0
  8 12  2  0  0  0  0
  8 14  1  0  0  0  0
  9 13  1  0  0  0  0
  9 37  1  0  0  0  0
 10 38  1  0  0  0  0
 10 39  1  0  0  0  0
 11 15  1  0  0  0  0
 11 41  1  0  0  0  0
 11 42  1  0  0  0  0
 12 43  1  0  0  0  0
 13 14  2  0  0  0  0
 13 31  1  0  0  0  0
 14 28  1  0  0  0  0
 15 16  1  0  0  0  0
 15 44  1  0  0  0  0
 15 45  1  0  0  0  0
 16 21  1  0  0  0  0
 16 46  1  0  0  0  0
 17 18  1  0  0  0  0
 17 47  1  0  0  0  0
 17 48  1  0  0  0  0
 18 49  1  0  0  0  0
 18 50  1  0  0  0  0
 18 51  1  0  0  0  0
 19 20  1  0  0  0  0
 19 52  1  0  0  0  0
 19 53  1  0  0  0  0
 20 54  1  0  0  0  0
 20 55  1  0  0  0  0
 20 56  1  0  0  0  0
 21 22  1  0  0  0  0
 21 57  1  0  0  0  0
 21 58  1  0  0  0  0
 22 59  1  0  0  0  0
 22 60  1  0  0  0  0
 23 29  1  0  0  0  0
 23 30  2  0  0  0  0
 24 25  1  0  0  0  0
 24 26  1  0  0  0  0
 24 27  1  0  0  0  0
 24 29  1  0  0  0  0
 25 61  1  0  0  0  0
 25 62  1  0  0  0  0
 25 63  1  0  0  0  0
 26 64  1  0  0  0  0
 26 65  1  0  0  0  0
 26 66  1  0  0  0  0
 27 67  1  0  0  0  0
 27 68  1  0  0  0  0
 27 69  1  0  0  0  0
 28 36  1  0  0  0  0
M  END
> <ConfScore>
-0.598749 

$$$$
4ago


 69 70  0  0  0  0  0  0  0  0999 V2000
    0.8551    7.0207   -0.1982 N   0  0  0  1  0  3  0  0  0  0  0  0
    1.8969    5.9902    7.3932 N   0  3  0  1  0  4  0  0  0  0  0  0
   -1.5996    5.1247    8.3353 N   0  3  0  1  0  4  0  0  0  0  0  0
    1.0304    3.8802    3.3154 C   0  0  0  1  0  3  0  0  0  0  0  0
    0.7654    4.4745    2.0471 C   0  0  0  1  0  2  0  0  0  0  0  0
    0.5683    5.0206    1.0025 C   0  0  0  1  0  2  0  0  0  0  0  0
    0.3208    5.6796   -0.2832 C   0  0  0  1  0  4  0  0  0  0  0  0
    2.0257    4.2230    5.4966 C   0  0  0  1  0  3  0  0  0  0  0  0
    0.6701    2.5722    3.6509 C   0  0  0  1  0  3  0  0  0  0  0  0
    2.7438    5.1386    6.4710 C   0  0  0  1  0  4  0  0  0  0  0  0
    0.6450    6.4379    6.6684 C   0  0  0  1  0  4  0  0  0  0  0  0
    1.7180    4.7025    4.2270 C   0  0  0  1  0  3  0  0  0  0  0  0
    0.9887    2.1154    4.9294 C   0  0  0  1  0  3  0  0  0  0  0  0
    1.6660    2.9053    5.8735 C   0  0  0  1  0  3  0  0  0  0  0  0
   -0.3315    7.1406    7.5870 C   0  0  0  1  0  4  0  0  0  0  0  0
   -0.7239    6.3054    8.7953 C   0  0  0  1  0  4  0  0  0  0  0  0
   -1.6749    3.9561    9.3256 C   0  0  0  1  0  4  0  0  0  0  0  0
   -2.1504    2.7159    8.5915 C   0  0  0  1  0  4  0  0  0  0  0  0
   -2.9474    5.4170    7.6861 C   0  0  0  1  0  4  0  0  0  0  0  0
   -3.7234    4.1812    7.2463 C   0  0  0  1  0  4  0  0  0  0  0  0
    0.5171    5.7702    9.4857 C   0  0  0  1  0  4  0  0  0  0  0  0
    1.4838    5.0907    8.5350 C   0  0  0  1  0  4  0  0  0  0  0  0
    1.3891    7.6429   -1.2902 C   0  0  0  1  0  3  0  0  0  0  0  0
    2.2213    9.8564   -1.9271 C   0  0  0  1  0  4  0  0  0  0  0  0
    2.3710   11.1641   -1.1411 C   0  0  0  1  0  4  0  0  0  0  0  0
    1.2421   10.1106   -3.0809 C   0  0  0  1  0  4  0  0  0  0  0  0
    3.5950    9.4015   -2.4349 C   0  0  0  1  0  4  0  0  0  0  0  0
    1.9913    2.4605    7.1160 O   0  0  0  1  0  2  0  0  0  0  0  0
    1.6902    8.9193   -0.9515 O   0  0  0  1  0  2  0  0  0  0  0  0
    1.5074    7.1171   -2.3868 O   0  0  0  1  0  1  0  0  0  0  0  0
    0.4394    0.1357    5.4996 I   0  0  0  1  0  1  0  0  0  0  0  0
   -0.7598    5.7189   -0.4823 H   0  0  0  1  0  1  0  0  0  0  0  0
    0.8222    5.1271   -1.0907 H   0  0  0  1  0  1  0  0  0  0  0  0
    0.8335    7.5028    0.6774 H   0  0  0  1  0  1  0  0  0  0  0  0
    2.4061    6.8017    7.7058 H   0  0  0  1  0  1  0  0  0  0  0  0
    1.6862    1.5662    7.2212 H   0  0  0  1  0  1  0  0  0  0  0  0
    0.1590    1.9331    2.9388 H   0  0  0  1  0  1  0  0  0  0  0  0
    3.3847    4.5064    7.1042 H   0  0  0  1  0  1  0  0  0  0  0  0
    3.3717    5.8210    5.8784 H   0  0  0  1  0  1  0  0  0  0  0  0
   -1.0634    4.7499    7.5696 H   0  0  0  1  0  1  0  0  0  0  0  0
    0.1514    5.5546    6.2370 H   0  0  0  1  0  1  0  0  0  0  0  0
    0.9315    7.1290    5.8619 H   0  0  0  1  0  1  0  0  0  0  0  0
    2.0067    5.7069    3.9417 H   0  0  0  1  0  1  0  0  0  0  0  0
   -1.2411    7.3770    7.0153 H   0  0  0  1  0  1  0  0  0  0  0  0
    0.1318    8.0731    7.9422 H   0  0  0  1  0  1  0  0  0  0  0  0
   -1.2915    6.9307    9.5009 H   0  0  0  1  0  1  0  0  0  0  0  0
   -2.3814    4.2006   10.1324 H   0  0  0  1  0  1  0  0  0  0  0  0
   -0.6783    3.7711    9.7541 H   0  0  0  1  0  1  0  0  0  0  0  0
   -1.4424    2.4727    7.7848 H   0  0  0  1  0  1  0  0  0  0  0  0
   -3.1458    2.9027    8.1622 H   0  0  0  1  0  1  0  0  0  0  0  0
   -2.2068    1.8723    9.2955 H   0  0  0  1  0  1  0  0  0  0  0  0
   -2.7710    6.0440    6.7986 H   0  0  0  1  0  1  0  0  0  0  0  0
   -3.5633    5.9697    8.4100 H   0  0  0  1  0  1  0  0  0  0  0  0
   -4.6768    4.4904    6.7926 H   0  0  0  1  0  1  0  0  0  0  0  0
   -3.9229    3.5443    8.1205 H   0  0  0  1  0  1  0  0  0  0  0  0
   -3.1318    3.6183    6.5097 H   0  0  0  1  0  1  0  0  0  0  0  0
    0.2059    5.0410   10.2476 H   0  0  0  1  0  1  0  0  0  0  0  0
    1.0366    6.6100    9.9714 H   0  0  0  1  0  1  0  0  0  0  0  0
    2.3834    4.7967    9.0964 H   0  0  0  1  0  1  0  0  0  0  0  0
    1.0001    4.1940    8.1209 H   0  0  0  1  0  1  0  0  0  0  0  0
    1.3907   11.4703   -0.7487 H   0  0  0  1  0  1  0  0  0  0  0  0
    2.7606   11.9489   -1.8047 H   0  0  0  1  0  1  0  0  0  0  0  0
    3.0683   11.0112   -0.3050 H   0  0  0  1  0  1  0  0  0  0  0  0
    1.6883   10.8236   -3.7899 H   0  0  0  1  0  1  0  0  0  0  0  0
    0.3054   10.5285   -2.6825 H   0  0  0  1  0  1  0  0  0  0  0  0
    1.0297    9.1635   -3.5969 H   0  0  0  1  0  1  0  0  0  0  0  0
    3.4839    8.4673   -3.0056 H   0  0  0  1  0  1  0  0  0  0  0  0
    4.2641    9.2310   -1.5792 H   0  0  0  1  0  1  0  0  0  0  0  0
    4.0213   10.1802   -3.0853 H   0  0  0  1  0  1  0  0  0  0  0  0
  1  7  1  0  0  0  0
  1 23  1  0  0  0  0
  1 34  1  0  0  0  0
  2 10  1  0  0  0  0
  2 11  1  0  0  0  0
  2 22  1  0  0  0  0
  2 35  1  0  0  0  0
  3 16  1  0  0  0  0
  3 17  1  0  0  0  0
  3 19  1  0  0  0  0
  3 40  1  0  0  0  0
  4  5  1  0  0  0  0
  4  9  2  0  0  0  0
  4 12  1  0  0  0  0
  5  6  3  0  0  0  0
  6  7  1  0  0  0  0
  7 32  1  0  0  0  0
  7 33  1  0  0  0  0
  8 10  1  0  0  0  0
  8 12  2  0  0  0  0
  8 14  1  0  0  0  0
  9 13  1  0  0  0  0
  9 37  1  0  0  0  0
 10 38  1  0  0  0  0
 10 39  1  0  0  0  0
 11 15  1  0  0  0  0
 11 41  1  0  0  0  0
 11 42  1  0  0  0  0
 12 43  1  0  0  0  0
 13 14  2  0  0  0  0
 13 31  1  0  0  0  0
 14 28  1  0  0  0  0
 15 16  1  0  0  0  0
 15 44  1  0  0  0  0
 15 45  1  0  0  0  0
 16 21  1  0  0  0  0
 16 46  1  0  0  0  0
 17 18  1  0  0  0  0
 17 47  1  0  0  0  0
 17 48  1  0  0  0  0
 18 49  1  0  0  0  0
 18 50  1  0  0  0  0
 18 51  1  0  0  0  0
 19 20  1  0  0  0  0
 19 52  1  0  0  0  0
 19 53  1  0  0  0  0
 20 54  1  0  0  0  0
 20 55  1  0  0  0  0
 20 56  1  0  0  0  0
 21 22  1  0  0  0  0
 21 57  1  0  0  0  0
 21 58  1  0  0  0  0
 22 59  1  0  0  0  0
 22 60  1  0  0  0  0
 23 29  1  0  0  0  0
 23 30  2  0  0  0  0
 24 25  1  0  0  0  0
 24 26  1  0  0  0  0
 24 27  1  0  0  0  0
 24 29  1  0  0  0  0
 25 61  1  0  0  0  0
 25 62  1  0  0  0  0
 25 63  1  0  0  0  0
 26 64  1  0  0  0  0
 26 65  1  0  0  0  0
 26 66  1  0  0  0  0
 27 67  1  0  0  0  0
 27 68  1  0  0  0  0
 27 69  1  0  0  0  0
 28 36  1  0  0  0  0
M  END
> <ConfScore>
-0.594761 

$$$$
4ago


 69 70  0  0  0  0  0  0  0  0999 V2000
    0.8551    7.0207   -0.1982 N   0  0  0  1  0  3  0  0  0  0  0  0
    1.8969    5.9902    7.3932 N   0  3  0  1  0  4  0  0  0  0  0  0
   -1.5996    5.1247    8.3353 N   0  3  0  1  0  4  0  0  0  0  0  0
    1.0304    3.8802    3.3154 C   0  0  0  1  0  3  0  0  0  0  0  0
    0.7654    4.4745    2.0471 C   0  0  0  1  0  2  0  0  0  0  0  0
    0.5683    5.0206    1.0025 C   0  0  0  1  0  2  0  0  0  0  0  0
    0.3208    5.6796   -0.2832 C   0  0  0  1  0  4  0  0  0  0  0  0
    2.0257    4.2230    5.4966 C   0  0  0  1  0  3  0  0  0  0  0  0
    0.6701    2.5722    3.6509 C   0  0  0  1  0  3  0  0  0  0  0  0
    2.7438    5.1386    6.4710 C   0  0  0  1  0  4  0  0  0  0  0  0
    0.6450    6.4379    6.6684 C   0  0  0  1  0  4  0  0  0  0  0  0
    1.7180    4.7025    4.2270 C   0  0  0  1  0  3  0  0  0  0  0  0
    0.9887    2.1154    4.9294 C   0  0  0  1  0  3  0  0  0  0  0  0
    1.6660    2.9053    5.8735 C   0  0  0  1  0  3  0  0  0  0  0  0
   -0.3315    7.1406    7.5870 C   0  0  0  1  0  4  0  0  0  0  0  0
   -0.7239    6.3054    8.7953 C   0  0  0  1  0  4  0  0  0  0  0  0
   -1.6749    3.9561    9.3256 C   0  0  0  1  0  4  0  0  0  0  0  0
   -2.1504    2.7159    8.5915 C   0  0  0  1  0  4  0  0  0  0  0  0
   -2.9474    5.4170    7.6861 C   0  0  0  1  0  4  0  0  0  0  0  0
   -3.7234    4.1812    7.2463 C   0  0  0  1  0  4  0  0  0  0  0  0
    0.5171    5.7702    9.4857 C   0  0  0  1  0  4  0  0  0  0  0  0
    1.4838    5.0907    8.5350 C   0  0  0  1  0  4  0  0  0  0  0  0
    1.3891    7.6429   -1.2902 C   0  0  0  1  0  3  0  0  0  0  0  0
    2.2213    9.8564   -1.9271 C   0  0  0  1  0  4  0  0  0  0  0  0
    3.5724    9.2509   -2.3247 C   0  0  0  1  0  4  0  0  0  0  0  0
    2.4865   11.2400   -1.3188 C   0  0  0  1  0  4  0  0  0  0  0  0
    1.3127    9.9403   -3.1597 C   0  0  0  1  0  4  0  0  0  0  0  0
    1.9913    2.4605    7.1160 O   0  0  0  1  0  2  0  0  0  0  0  0
    1.6902    8.9193   -0.9515 O   0  0  0  1  0  2  0  0  0  0  0  0
    1.5074    7.1171   -2.3868 O   0  0  0  1  0  1  0  0  0  0  0  0
    0.4394    0.1357    5.4996 I   0  0  0  1  0  1  0  0  0  0  0  0
   -0.7598    5.7189   -0.4823 H   0  0  0  1  0  1  0  0  0  0  0  0
    0.8222    5.1271   -1.0907 H   0  0  0  1  0  1  0  0  0  0  0  0
    0.8335    7.5028    0.6774 H   0  0  0  1  0  1  0  0  0  0  0  0
    2.4061    6.8017    7.7058 H   0  0  0  1  0  1  0  0  0  0  0  0
    1.6862    1.5662    7.2212 H   0  0  0  1  0  1  0  0  0  0  0  0
    0.1590    1.9331    2.9388 H   0  0  0  1  0  1  0  0  0  0  0  0
    3.3847    4.5064    7.1042 H   0  0  0  1  0  1  0  0  0  0  0  0
    3.3717    5.8210    5.8784 H   0  0  0  1  0  1  0  0  0  0  0  0
   -1.0634    4.7499    7.5696 H   0  0  0  1  0  1  0  0  0  0  0  0
    0.1514    5.5546    6.2370 H   0  0  0  1  0  1  0  0  0  0  0  0
    0.9315    7.1290    5.8619 H   0  0  0  1  0  1  0  0  0  0  0  0
    2.0067    5.7069    3.9417 H   0  0  0  1  0  1  0  0  0  0  0  0
   -1.2411    7.3770    7.0153 H   0  0  0  1  0  1  0  0  0  0  0  0
    0.1318    8.0731    7.9422 H   0  0  0  1  0  1  0  0  0  0  0  0
   -1.2915    6.9307    9.5009 H   0  0  0  1  0  1  0  0  0  0  0  0
   -2.3814    4.2006   10.1324 H   0  0  0  1  0  1  0  0  0  0  0  0
   -0.6783    3.7711    9.7541 H   0  0  0  1  0  1  0  0  0  0  0  0
   -1.4424    2.4727    7.7848 H   0  0  0  1  0  1  0  0  0  0  0  0
   -3.1458    2.9027    8.1622 H   0  0  0  1  0  1  0  0  0  0  0  0
   -2.2068    1.8723    9.2955 H   0  0  0  1  0  1  0  0  0  0  0  0
   -2.7710    6.0440    6.7986 H   0  0  0  1  0  1  0  0  0  0  0  0
   -3.5633    5.9697    8.4100 H   0  0  0  1  0  1  0  0  0  0  0  0
   -4.6768    4.4904    6.7926 H   0  0  0  1  0  1  0  0  0  0  0  0
   -3.9229    3.5443    8.1205 H   0  0  0  1  0  1  0  0  0  0  0  0
   -3.1318    3.6183    6.5097 H   0  0  0  1  0  1  0  0  0  0  0  0
    0.2059    5.0410   10.2476 H   0  0  0  1  0  1  0  0  0  0  0  0
    1.0366    6.6100    9.9714 H   0  0  0  1  0  1  0  0  0  0  0  0
    2.3834    4.7967    9.0964 H   0  0  0  1  0  1  0  0  0  0  0  0
    1.0001    4.1940    8.1209 H   0  0  0  1  0  1  0  0  0  0  0  0
    4.2097    9.1597   -1.4336 H   0  0  0  1  0  1  0  0  0  0  0  0
    4.0643    9.9023   -3.0609 H   0  0  0  1  0  1  0  0  0  0  0  0
    3.4130    8.2559   -2.7640 H   0  0  0  1  0  1  0  0  0  0  0  0
    2.8861   11.9106   -2.0938 H   0  0  0  1  0  1  0  0  0  0  0  0
    3.2180   11.1480   -0.5019 H   0  0  0  1  0  1  0  0  0  0  0  0
    1.5475   11.6530   -0.9238 H   0  0  0  1  0  1  0  0  0  0  0  0
    0.3467   10.3826   -2.8736 H   0  0  0  1  0  1  0  0  0  0  0  0
    1.1484    8.9308   -3.5635 H   0  0  0  1  0  1  0  0  0  0  0  0
    1.7916   10.5690   -3.9256 H   0  0  0  1  0  1  0  0  0  0  0  0
  1  7  1  0  0  0  0
  1 23  1  0  0  0  0
  1 34  1  0  0  0  0
  2 10  1  0  0  0  0
  2 11  1  0  0  0  0
  2 22  1  0  0  0  0
  2 35  1  0  0  0  0
  3 16  1  0  0  0  0
  3 17  1  0  0  0  0
  3 19  1  0  0  0  0
  3 40  1  0  0  0  0
  4  5  1  0  0  0  0
  4  9  2  0  0  0  0
  4 12  1  0  0  0  0
  5  6  3  0  0  0  0
  6  7  1  0  0  0  0
  7 32  1  0  0  0  0
  7 33  1  0  0  0  0
  8 10  1  0  0  0  0
  8 12  2  0  0  0  0
  8 14  1  0  0  0  0
  9 13  1  0  0  0  0
  9 37  1  0  0  0  0
 10 38  1  0  0  0  0
 10 39  1  0  0  0  0
 11 15  1  0  0  0  0
 11 41  1  0  0  0  0
 11 42  1  0  0  0  0
 12 43  1  0  0  0  0
 13 14  2  0  0  0  0
 13 31  1  0  0  0  0
 14 28  1  0  0  0  0
 15 16  1  0  0  0  0
 15 44  1  0  0  0  0
 15 45  1  0  0  0  0
 16 21  1  0  0  0  0
 16 46  1  0  0  0  0
 17 18  1  0  0  0  0
 17 47  1  0  0  0  0
 17 48  1  0  0  0  0
 18 49  1  0  0  0  0
 18 50  1  0  0  0  0
 18 51  1  0  0  0  0
 19 20  1  0  0  0  0
 19 52  1  0  0  0  0
 19 53  1  0  0  0  0
 20 54  1  0  0  0  0
 20 55  1  0  0  0  0
 20 56  1  0  0  0  0
 21 22  1  0  0  0  0
 21 57  1  0  0  0  0
 21 58  1  0  0  0  0
 22 59  1  0  0  0  0
 22 60  1  0  0  0  0
 23 29  1  0  0  0  0
 23 30  2  0  0  0  0
 24 25  1  0  0  0  0
 24 26  1  0  0  0  0
 24 27  1  0  0  0  0
 24 29  1  0  0  0  0
 25 61  1  0  0  0  0
 25 62  1  0  0  0  0
 25 63  1  0  0  0  0
 26 64  1  0  0  0  0
 26 65  1  0  0  0  0
 26 66  1  0  0  0  0
 27 67  1  0  0  0  0
 27 68  1  0  0  0  0
 27 69  1  0  0  0  0
 28 36  1  0  0  0  0
M  END
> <ConfScore>
-0.594761 

$$$$
4ago


 69 70  0  0  0  0  0  0  0  0999 V2000
   91.1554   91.2821  -49.2504 N   0  0  0  1  0  3  0  0  0  0  0  0
   88.5473   96.9346  -45.9230 N   0  3  0  1  0  4  0  0  0  0  0  0
   84.7743   95.0392  -46.7755 N   0  3  0  1  0  4  0  0  0  0  0  0
   91.2337   93.6144  -45.1525 C   0  0  0  1  0  3  0  0  0  0  0  0
   91.3933   92.5817  -46.1220 C   0  0  0  1  0  2  0  0  0  0  0  0
   91.5051   91.7512  -46.9740 C   0  0  0  1  0  2  0  0  0  0  0  0
   91.6473   90.7242  -48.0102 C   0  0  0  1  0  4  0  0  0  0  0  0
   90.5014   95.8938  -44.7858 C   0  0  0  1  0  3  0  0  0  0  0  0
   91.5924   93.4805  -43.8084 C   0  0  0  1  0  3  0  0  0  0  0  0
   89.9050   97.1660  -45.3350 C   0  0  0  1  0  4  0  0  0  0  0  0
   87.4782   96.9209  -44.8626 C   0  0  0  1  0  4  0  0  0  0  0  0
   90.7019   94.8197  -45.6475 C   0  0  0  1  0  3  0  0  0  0  0  0
   91.3808   94.5707  -42.9650 C   0  0  0  1  0  3  0  0  0  0  0  0
   90.8444   95.7888  -43.4150 C   0  0  0  1  0  3  0  0  0  0  0  0
   86.1192   96.7362  -45.5199 C   0  0  0  1  0  4  0  0  0  0  0  0
   86.1684   95.3768  -46.2144 C   0  0  0  1  0  4  0  0  0  0  0  0
   83.6638   94.9410  -45.7221 C   0  0  0  1  0  4  0  0  0  0  0  0
   84.0291   93.8634  -44.7179 C   0  0  0  1  0  4  0  0  0  0  0  0
   84.3029   95.7381  -48.0455 C   0  0  0  1  0  4  0  0  0  0  0  0
   84.2747   97.2596  -47.9616 C   0  0  0  1  0  4  0  0  0  0  0  0
   87.1843   95.4149  -47.3643 C   0  0  0  1  0  4  0  0  0  0  0  0
   88.5502   95.6842  -46.7544 C   0  0  0  1  0  4  0  0  0  0  0  0
   91.7174   92.3994  -49.7987 C   0  0  0  1  0  3  0  0  0  0  0  0
   91.5815   93.7064  -51.8653 C   0  0  0  1  0  4  0  0  0  0  0  0
   91.4326   94.9530  -50.9855 C   0  0  0  1  0  4  0  0  0  0  0  0
   90.6711   93.8820  -53.0880 C   0  0  0  1  0  4  0  0  0  0  0  0
   93.0511   93.5344  -52.2688 C   0  0  0  1  0  4  0  0  0  0  0  0
   90.6489   96.8591  -42.6002 O   0  0  0  1  0  2  0  0  0  0  0  0
   91.1461   92.6172  -51.0073 O   0  0  0  1  0  2  0  0  0  0  0  0
   92.6209   93.0361  -49.2779 O   0  0  0  1  0  1  0  0  0  0  0  0
   91.8884   94.4097  -40.9004 I   0  0  0  1  0  1  0  0  0  0  0  0
   91.0592   89.8353  -47.7401 H   0  0  0  1  0  1  0  0  0  0  0  0
   92.7050   90.4445  -48.1187 H   0  0  0  1  0  1  0  0  0  0  0  0
   90.3884   90.8415  -49.7164 H   0  0  0  1  0  1  0  0  0  0  0  0
   88.3245   97.7057  -46.5323 H   0  0  0  1  0  1  0  0  0  0  0  0
   90.9232   96.6382  -41.7172 H   0  0  0  1  0  1  0  0  0  0  0  0
   92.0220   92.5575  -43.4340 H   0  0  0  1  0  1  0  0  0  0  0  0
   89.8196   97.9004  -44.5196 H   0  0  0  1  0  1  0  0  0  0  0  0
   90.5694   97.5619  -46.1179 H   0  0  0  1  0  1  0  0  0  0  0  0
   84.8942   94.0869  -47.0802 H   0  0  0  1  0  1  0  0  0  0  0  0
   87.4938   97.8737  -44.3132 H   0  0  0  1  0  1  0  0  0  0  0  0
   87.6642   96.0913  -44.1644 H   0  0  0  1  0  1  0  0  0  0  0  0
   90.4485   94.9112  -46.6968 H   0  0  0  1  0  1  0  0  0  0  0  0
   85.9387   97.5344  -46.2549 H   0  0  0  1  0  1  0  0  0  0  0  0
   85.3228   96.7489  -44.7609 H   0  0  0  1  0  1  0  0  0  0  0  0
   86.4683   94.6065  -45.4879 H   0  0  0  1  0  1  0  0  0  0  0  0
   82.7130   94.6825  -46.2109 H   0  0  0  1  0  1  0  0  0  0  0  0
   83.5599   95.9067  -45.2047 H   0  0  0  1  0  1  0  0  0  0  0  0
   84.1345   92.8986  -45.2368 H   0  0  0  1  0  1  0  0  0  0  0  0
   83.2375   93.7868  -43.9578 H   0  0  0  1  0  1  0  0  0  0  0  0
   84.9811   94.1232  -44.2315 H   0  0  0  1  0  1  0  0  0  0  0  0
   83.2833   95.3889  -48.2700 H   0  0  0  1  0  1  0  0  0  0  0  0
   84.9782   95.4517  -48.8646 H   0  0  0  1  0  1  0  0  0  0  0  0
   83.9242   97.6722  -48.9194 H   0  0  0  1  0  1  0  0  0  0  0  0
   85.2873   97.6332  -47.7503 H   0  0  0  1  0  1  0  0  0  0  0  0
   83.5933   97.5711  -47.1565 H   0  0  0  1  0  1  0  0  0  0  0  0
   86.9231   96.2167  -48.0701 H   0  0  0  1  0  1  0  0  0  0  0  0
   87.1917   94.4492  -47.8919 H   0  0  0  1  0  1  0  0  0  0  0  0
   88.8308   94.8323  -46.1170 H   0  0  0  1  0  1  0  0  0  0  0  0
   89.2867   95.7954  -47.5636 H   0  0  0  1  0  1  0  0  0  0  0  0
   91.7307   95.8433  -51.5577 H   0  0  0  1  0  1  0  0  0  0  0  0
   92.0754   94.8559  -50.0992 H   0  0  0  1  0  1  0  0  0  0  0  0
   90.3847   95.0553  -50.6693 H   0  0  0  1  0  1  0  0  0  0  0  0
   89.6425   94.0822  -52.7532 H   0  0  0  1  0  1  0  0  0  0  0  0
   90.6867   92.9629  -53.6927 H   0  0  0  1  0  1  0  0  0  0  0  0
   91.0307   94.7252  -53.6948 H   0  0  0  1  0  1  0  0  0  0  0  0
   93.6818   93.5405  -51.3672 H   0  0  0  1  0  1  0  0  0  0  0  0
   93.3489   94.3607  -52.9302 H   0  0  0  1  0  1  0  0  0  0  0  0
   93.1760   92.5772  -52.7974 H   0  0  0  1  0  1  0  0  0  0  0  0
  1  7  1  0  0  0  0
  1 23  1  0  0  0  0
  1 34  1  0  0  0  0
  2 10  1  0  0  0  0
  2 11  1  0  0  0  0
  2 22  1  0  0  0  0
  2 35  1  0  0  0  0
  3 16  1  0  0  0  0
  3 17  1  0  0  0  0
  3 19  1  0  0  0  0
  3 40  1  0  0  0  0
  4  5  1  0  0  0  0
  4  9  2  0  0  0  0
  4 12  1  0  0  0  0
  5  6  3  0  0  0  0
  6  7  1  0  0  0  0
  7 32  1  0  0  0  0
  7 33  1  0  0  0  0
  8 10  1  0  0  0  0
  8 12  2  0  0  0  0
  8 14  1  0  0  0  0
  9 13  1  0  0  0  0
  9 37  1  0  0  0  0
 10 38  1  0  0  0  0
 10 39  1  0  0  0  0
 11 15  1  0  0  0  0
 11 41  1  0  0  0  0
 11 42  1  0  0  0  0
 12 43  1  0  0  0  0
 13 14  2  0  0  0  0
 13 31  1  0  0  0  0
 14 28  1  0  0  0  0
 15 16  1  0  0  0  0
 15 44  1  0  0  0  0
 15 45  1  0  0  0  0
 16 21  1  0  0  0  0
 16 46  1  0  0  0  0
 17 18  1  0  0  0  0
 17 47  1  0  0  0  0
 17 48  1  0  0  0  0
 18 49  1  0  0  0  0
 18 50  1  0  0  0  0
 18 51  1  0  0  0  0
 19 20  1  0  0  0  0
 19 52  1  0  0  0  0
 19 53  1  0  0  0  0
 20 54  1  0  0  0  0
 20 55  1  0  0  0  0
 20 56  1  0  0  0  0
 21 22  1  0  0  0  0
 21 57  1  0  0  0  0
 21 58  1  0  0  0  0
 22 59  1  0  0  0  0
 22 60  1  0  0  0  0
 23 29  1  0  0  0  0
 23 30  2  0  0  0  0
 24 25  1  0  0  0  0
 24 26  1  0  0  0  0
 24 27  1  0  0  0  0
 24 29  1  0  0  0  0
 25 61  1  0  0  0  0
 25 62  1  0  0  0  0
 25 63  1  0  0  0  0
 26 64  1  0  0  0  0
 26 65  1  0  0  0  0
 26 66  1  0  0  0  0
 27 67  1  0  0  0  0
 27 68  1  0  0  0  0
 27 69  1  0  0  0  0
 28 36  1  0  0  0  0
M  END
> <ConfScore>
-0.592499 

$$$$
4ago


 69 70  0  0  0  0  0  0  0  0999 V2000
    8.9295    1.2217   36.2499 N   0  0  0  1  0  3  0  0  0  0  0  0
    5.1131    2.7337   29.4564 N   0  3  0  1  0  4  0  0  0  0  0  0
    2.4844    4.4024   31.3898 N   0  3  0  1  0  4  0  0  0  0  0  0
    8.5930    1.3120   31.5470 C   0  0  0  1  0  3  0  0  0  0  0  0
    8.4906    0.8759   32.9002 C   0  0  0  1  0  2  0  0  0  0  0  0
    8.4297    0.5591   34.0509 C   0  0  0  1  0  2  0  0  0  0  0  0
    8.3493    0.1592   35.4589 C   0  0  0  1  0  4  0  0  0  0  0  0
    7.6270    2.3630   29.6260 C   0  0  0  1  0  3  0  0  0  0  0  0
    9.7440    1.0760   30.8280 C   0  0  0  1  0  3  0  0  0  0  0  0
    6.4640    3.0610   28.9950 C   0  0  0  1  0  4  0  0  0  0  0  0
    5.0848    2.7889   30.9264 C   0  0  0  1  0  4  0  0  0  0  0  0
    7.5450    1.9700   30.9520 C   0  0  0  1  0  3  0  0  0  0  0  0
    9.8450    1.4950   29.5070 C   0  0  0  1  0  3  0  0  0  0  0  0
    8.7880    2.1430   28.9040 C   0  0  0  1  0  3  0  0  0  0  0  0
    3.7561    2.2506   31.4078 C   0  0  0  1  0  4  0  0  0  0  0  0
    2.5681    2.9915   30.7777 C   0  0  0  1  0  4  0  0  0  0  0  0
    3.7251    5.2755   31.1645 C   0  0  0  1  0  4  0  0  0  0  0  0
    3.6073    6.5297   32.0108 C   0  0  0  1  0  4  0  0  0  0  0  0
    1.1895    5.1931   31.2427 C   0  0  0  1  0  4  0  0  0  0  0  0
    1.0379    6.3534   32.2192 C   0  0  0  1  0  4  0  0  0  0  0  0
    2.7007    3.1218   29.2618 C   0  0  0  1  0  4  0  0  0  0  0  0
    4.0833    3.6240   28.8874 C   0  0  0  1  0  4  0  0  0  0  0  0
    8.4634    1.5118   37.5003 C   0  0  0  1  0  3  0  0  0  0  0  0
    8.9251    3.0809   39.3230 C   0  0  0  1  0  4  0  0  0  0  0  0
    9.1995    1.9021   40.2639 C   0  0  0  1  0  4  0  0  0  0  0  0
    7.4579    3.4936   39.5014 C   0  0  0  1  0  4  0  0  0  0  0  0
    9.8848    4.2322   39.6478 C   0  0  0  1  0  4  0  0  0  0  0  0
    8.8845    2.5615   27.6143 O   0  0  0  1  0  2  0  0  0  0  0  0
    9.1877    2.5418   37.9991 O   0  0  0  1  0  2  0  0  0  0  0  0
    7.5760    0.8866   38.0612 O   0  0  0  1  0  1  0  0  0  0  0  0
   11.6378    1.1351   28.4106 I   0  0  0  1  0  1  0  0  0  0  0  0
    8.9097   -0.7736   35.6161 H   0  0  0  1  0  1  0  0  0  0  0  0
    7.2990    0.0085   35.7467 H   0  0  0  1  0  1  0  0  0  0  0  0
    9.6872    1.7551   35.8745 H   0  0  0  1  0  1  0  0  0  0  0  0
    4.8924    1.8043   29.1355 H   0  0  0  1  0  1  0  0  0  0  0  0
    9.1378    1.8297   27.0629 H   0  0  0  1  0  1  0  0  0  0  0  0
   10.5760    0.5603   31.2955 H   0  0  0  1  0  1  0  0  0  0  0  0
    6.6083    4.1404   29.1550 H   0  0  0  1  0  1  0  0  0  0  0  0
    6.5003    2.8413   27.9173 H   0  0  0  1  0  1  0  0  0  0  0  0
    2.5112    4.2061   32.3772 H   0  0  0  1  0  1  0  0  0  0  0  0
    5.2044    3.8304   31.2596 H   0  0  0  1  0  1  0  0  0  0  0  0
    5.9019    2.1764   31.3352 H   0  0  0  1  0  1  0  0  0  0  0  0
    6.6491    2.1830   31.5226 H   0  0  0  1  0  1  0  0  0  0  0  0
    3.7038    2.3623   32.5009 H   0  0  0  1  0  1  0  0  0  0  0  0
    3.6891    1.1847   31.1439 H   0  0  0  1  0  1  0  0  0  0  0  0
    1.6451    2.4370   31.0052 H   0  0  0  1  0  1  0  0  0  0  0  0
    3.7937    5.5526   30.1023 H   0  0  0  1  0  1  0  0  0  0  0  0
    4.6271    4.7171   31.4571 H   0  0  0  1  0  1  0  0  0  0  0  0
    3.5387    6.2506   33.0732 H   0  0  0  1  0  1  0  0  0  0  0  0
    2.7043    7.0860   31.7186 H   0  0  0  1  0  1  0  0  0  0  0  0
    4.4943    7.1617   31.8550 H   0  0  0  1  0  1  0  0  0  0  0  0
    0.3470    4.5019   31.3990 H   0  0  0  1  0  1  0  0  0  0  0  0
    1.1491    5.5967   30.2208 H   0  0  0  1  0  1  0  0  0  0  0  0
    0.0790    6.8613   32.0373 H   0  0  0  1  0  1  0  0  0  0  0  0
    1.8634    7.0651   32.0726 H   0  0  0  1  0  1  0  0  0  0  0  0
    1.0612    5.9717   33.2504 H   0  0  0  1  0  1  0  0  0  0  0  0
    1.9464    3.8319   28.8930 H   0  0  0  1  0  1  0  0  0  0  0  0
    2.5359    2.1373   28.7986 H   0  0  0  1  0  1  0  0  0  0  0  0
    4.1808    3.6404   27.7915 H   0  0  0  1  0  1  0  0  0  0  0  0
    4.2214    4.6406   29.2835 H   0  0  0  1  0  1  0  0  0  0  0  0
    8.5341    1.0654   40.0070 H   0  0  0  1  0  1  0  0  0  0  0  0
    9.0146    2.2105   41.3026 H   0  0  0  1  0  1  0  0  0  0  0  0
   10.2461    1.5835   40.1566 H   0  0  0  1  0  1  0  0  0  0  0  0
    7.3105    3.8938   40.5154 H   0  0  0  1  0  1  0  0  0  0  0  0
    6.8094    2.6167   39.3562 H   0  0  0  1  0  1  0  0  0  0  0  0
    7.2014    4.2647   38.7611 H   0  0  0  1  0  1  0  0  0  0  0  0
    9.6805    5.0800   38.9768 H   0  0  0  1  0  1  0  0  0  0  0  0
   10.9221    3.8954   39.5078 H   0  0  0  1  0  1  0  0  0  0  0  0
    9.7385    4.5473   40.6921 H   0  0  0  1  0  1  0  0  0  0  0  0
  1  7  1  0  0  0  0
  1 23  1  0  0  0  0
  1 34  1  0  0  0  0
  2 10  1  0  0  0  0
  2 11  1  0  0  0  0
  2 22  1  0  0  0  0
  2 35  1  0  0  0  0
  3 16  1  0  0  0  0
  3 17  1  0  0  0  0
  3 19  1  0  0  0  0
  3 40  1  0  0  0  0
  4  5  1  0  0  0  0
  4  9  2  0  0  0  0
  4 12  1  0  0  0  0
  5  6  3  0  0  0  0
  6  7  1  0  0  0  0
  7 32  1  0  0  0  0
  7 33  1  0  0  0  0
  8 10  1  0  0  0  0
  8 12  2  0  0  0  0
  8 14  1  0  0  0  0
  9 13  1  0  0  0  0
  9 37  1  0  0  0  0
 10 38  1  0  0  0  0
 10 39  1  0  0  0  0
 11 15  1  0  0  0  0
 11 41  1  0  0  0  0
 11 42  1  0  0  0  0
 12 43  1  0  0  0  0
 13 14  2  0  0  0  0
 13 31  1  0  0  0  0
 14 28  1  0  0  0  0
 15 16  1  0  0  0  0
 15 44  1  0  0  0  0
 15 45  1  0  0  0  0
 16 21  1  0  0  0  0
 16 46  1  0  0  0  0
 17 18  1  0  0  0  0
 17 47  1  0  0  0  0
 17 48  1  0  0  0  0
 18 49  1  0  0  0  0
 18 50  1  0  0  0  0
 18 51  1  0  0  0  0
 19 20  1  0  0  0  0
 19 52  1  0  0  0  0
 19 53  1  0  0  0  0
 20 54  1  0  0  0  0
 20 55  1  0  0  0  0
 20 56  1  0  0  0  0
 21 22  1  0  0  0  0
 21 57  1  0  0  0  0
 21 58  1  0  0  0  0
 22 59  1  0  0  0  0
 22 60  1  0  0  0  0
 23 29  1  0  0  0  0
 23 30  2  0  0  0  0
 24 25  1  0  0  0  0
 24 26  1  0  0  0  0
 24 27  1  0  0  0  0
 24 29  1  0  0  0  0
 25 61  1  0  0  0  0
 25 62  1  0  0  0  0
 25 63  1  0  0  0  0
 26 64  1  0  0  0  0
 26 65  1  0  0  0  0
 26 66  1  0  0  0  0
 27 67  1  0  0  0  0
 27 68  1  0  0  0  0
 27 69  1  0  0  0  0
 28 36  1  0  0  0  0
M  END
> <ConfScore>
-0.590167 

$$$$
4ago


 69 70  0  0  0  0  0  0  0  0999 V2000
   91.1554   91.2821  -49.2504 N   0  0  0  1  0  3  0  0  0  0  0  0
   88.6180   97.5157  -44.6538 N   0  3  0  1  0  4  0  0  0  0  0  0
   85.4738   97.5457  -41.7096 N   0  3  0  1  0  4  0  0  0  0  0  0
   91.2337   93.6144  -45.1525 C   0  0  0  1  0  3  0  0  0  0  0  0
   91.3933   92.5817  -46.1220 C   0  0  0  1  0  2  0  0  0  0  0  0
   91.5051   91.7512  -46.9740 C   0  0  0  1  0  2  0  0  0  0  0  0
   91.6473   90.7242  -48.0102 C   0  0  0  1  0  4  0  0  0  0  0  0
   90.5014   95.8938  -44.7858 C   0  0  0  1  0  3  0  0  0  0  0  0
   91.5924   93.4805  -43.8084 C   0  0  0  1  0  3  0  0  0  0  0  0
   89.9050   97.1660  -45.3350 C   0  0  0  1  0  4  0  0  0  0  0  0
   88.8567   98.2004  -43.3341 C   0  0  0  1  0  4  0  0  0  0  0  0
   90.7019   94.8197  -45.6475 C   0  0  0  1  0  3  0  0  0  0  0  0
   91.3808   94.5707  -42.9650 C   0  0  0  1  0  3  0  0  0  0  0  0
   90.8444   95.7888  -43.4150 C   0  0  0  1  0  3  0  0  0  0  0  0
   87.5205   98.5789  -42.7141 C   0  0  0  1  0  4  0  0  0  0  0  0
   86.7768   97.2653  -42.4817 C   0  0  0  1  0  4  0  0  0  0  0  0
   84.8480   96.3175  -41.0372 C   0  0  0  1  0  4  0  0  0  0  0  0
   83.4677   96.6845  -40.5242 C   0  0  0  1  0  4  0  0  0  0  0  0
   85.3923   98.7879  -40.8299 C   0  0  0  1  0  4  0  0  0  0  0  0
   86.1197   98.6716  -39.4956 C   0  0  0  1  0  4  0  0  0  0  0  0
   86.4394   96.6115  -43.8288 C   0  0  0  1  0  4  0  0  0  0  0  0
   87.7547   96.2942  -44.5213 C   0  0  0  1  0  4  0  0  0  0  0  0
   91.7675   92.3507  -49.8405 C   0  0  0  1  0  3  0  0  0  0  0  0
   91.5486   93.7151  -51.8624 C   0  0  0  1  0  4  0  0  0  0  0  0
   93.0135   93.3628  -52.1457 C   0  0  0  1  0  4  0  0  0  0  0  0
   91.5186   95.0904  -51.1825 C   0  0  0  1  0  4  0  0  0  0  0  0
   90.7555   93.7106  -53.1750 C   0  0  0  1  0  4  0  0  0  0  0  0
   90.6489   96.8591  -42.6002 O   0  0  0  1  0  2  0  0  0  0  0  0
   91.0972   92.6542  -50.9776 O   0  0  0  1  0  2  0  0  0  0  0  0
   92.7811   92.8809  -49.4110 O   0  0  0  1  0  1  0  0  0  0  0  0
   91.8884   94.4097  -40.9004 I   0  0  0  1  0  1  0  0  0  0  0  0
   91.0592   89.8353  -47.7401 H   0  0  0  1  0  1  0  0  0  0  0  0
   92.7050   90.4445  -48.1187 H   0  0  0  1  0  1  0  0  0  0  0  0
   90.3510   90.8778  -49.6852 H   0  0  0  1  0  1  0  0  0  0  0  0
   88.1210   98.1800  -45.2258 H   0  0  0  1  0  1  0  0  0  0  0  0
   90.9232   96.6382  -41.7172 H   0  0  0  1  0  1  0  0  0  0  0  0
   92.0220   92.5575  -43.4340 H   0  0  0  1  0  1  0  0  0  0  0  0
   90.6214   97.9883  -45.1867 H   0  0  0  1  0  1  0  0  0  0  0  0
   89.7143   97.0345  -46.4108 H   0  0  0  1  0  1  0  0  0  0  0  0
   84.8297   97.7604  -42.4534 H   0  0  0  1  0  1  0  0  0  0  0  0
   89.4571   99.1080  -43.4947 H   0  0  0  1  0  1  0  0  0  0  0  0
   89.3949   97.5189  -42.6589 H   0  0  0  1  0  1  0  0  0  0  0  0
   90.4485   94.9112  -46.6968 H   0  0  0  1  0  1  0  0  0  0  0  0
   86.9509   99.2245  -43.3987 H   0  0  0  1  0  1  0  0  0  0  0  0
   87.6770   99.1033  -41.7597 H   0  0  0  1  0  1  0  0  0  0  0  0
   87.4123   96.5849  -41.8949 H   0  0  0  1  0  1  0  0  0  0  0  0
   85.4799   95.9945  -40.1968 H   0  0  0  1  0  1  0  0  0  0  0  0
   84.7637   95.4996  -41.7686 H   0  0  0  1  0  1  0  0  0  0  0  0
   83.5548   97.4919  -39.7814 H   0  0  0  1  0  1  0  0  0  0  0  0
   83.0042   95.8035  -40.0559 H   0  0  0  1  0  1  0  0  0  0  0  0
   82.8433   97.0252  -41.3635 H   0  0  0  1  0  1  0  0  0  0  0  0
   84.3303   98.9923  -40.6240 H   0  0  0  1  0  1  0  0  0  0  0  0
   85.8277   99.6305  -41.3861 H   0  0  0  1  0  1  0  0  0  0  0  0
   87.1843   98.4611  -39.6768 H   0  0  0  1  0  1  0  0  0  0  0  0
   85.6788   97.8526  -38.9088 H   0  0  0  1  0  1  0  0  0  0  0  0
   86.0216   99.6155  -38.9397 H   0  0  0  1  0  1  0  0  0  0  0  0
   85.8477   97.3039  -44.4449 H   0  0  0  1  0  1  0  0  0  0  0  0
   85.8677   95.6855  -43.6648 H   0  0  0  1  0  1  0  0  0  0  0  0
   88.2947   95.5375  -43.9326 H   0  0  0  1  0  1  0  0  0  0  0  0
   87.5429   95.8964  -45.5245 H   0  0  0  1  0  1  0  0  0  0  0  0
   93.4524   94.1240  -52.8064 H   0  0  0  1  0  1  0  0  0  0  0  0
   93.0668   92.3798  -52.6346 H   0  0  0  1  0  1  0  0  0  0  0  0
   93.5727   93.3329  -51.1998 H   0  0  0  1  0  1  0  0  0  0  0  0
   92.1756   95.0775  -50.3003 H   0  0  0  1  0  1  0  0  0  0  0  0
   90.4897   95.3229  -50.8691 H   0  0  0  1  0  1  0  0  0  0  0  0
   91.8674   95.8566  -51.8894 H   0  0  0  1  0  1  0  0  0  0  0  0
   90.9074   92.7511  -53.6917 H   0  0  0  1  0  1  0  0  0  0  0  0
   91.1046   94.5321  -53.8171 H   0  0  0  1  0  1  0  0  0  0  0  0
   89.6851   93.8442  -52.9566 H   0  0  0  1  0  1  0  0  0  0  0  0
  1  7  1  0  0  0  0
  1 23  1  0  0  0  0
  1 34  1  0  0  0  0
  2 10  1  0  0  0  0
  2 11  1  0  0  0  0
  2 22  1  0  0  0  0
  2 35  1  0  0  0  0
  3 16  1  0  0  0  0
  3 17  1  0  0  0  0
  3 19  1  0  0  0  0
  3 40  1  0  0  0  0
  4  5  1  0  0  0  0
  4  9  2  0  0  0  0
  4 12  1  0  0  0  0
  5  6  3  0  0  0  0
  6  7  1  0  0  0  0
  7 32  1  0  0  0  0
  7 33  1  0  0  0  0
  8 10  1  0  0  0  0
  8 12  2  0  0  0  0
  8 14  1  0  0  0  0
  9 13  1  0  0  0  0
  9 37  1  0  0  0  0
 10 38  1  0  0  0  0
 10 39  1  0  0  0  0
 11 15  1  0  0  0  0
 11 41  1  0  0  0  0
 11 42  1  0  0  0  0
 12 43  1  0  0  0  0
 13 14  2  0  0  0  0
 13 31  1  0  0  0  0
 14 28  1  0  0  0  0
 15 16  1  0  0  0  0
 15 44  1  0  0  0  0
 15 45  1  0  0  0  0
 16 21  1  0  0  0  0
 16 46  1  0  0  0  0
 17 18  1  0  0  0  0
 17 47  1  0  0  0  0
 17 48  1  0  0  0  0
 18 49  1  0  0  0  0
 18 50  1  0  0  0  0
 18 51  1  0  0  0  0
 19 20  1  0  0  0  0
 19 52  1  0  0  0  0
 19 53  1  0  0  0  0
 20 54  1  0  0  0  0
 20 55  1  0  0  0  0
 20 56  1  0  0  0  0
 21 22  1  0  0  0  0
 21 57  1  0  0  0  0
 21 58  1  0  0  0  0
 22 59  1  0  0  0  0
 22 60  1  0  0  0  0
 23 29  1  0  0  0  0
 23 30  2  0  0  0  0
 24 25  1  0  0  0  0
 24 26  1  0  0  0  0
 24 27  1  0  0  0  0
 24 29  1  0  0  0  0
 25 61  1  0  0  0  0
 25 62  1  0  0  0  0
 25 63  1  0  0  0  0
 26 64  1  0  0  0  0
 26 65  1  0  0  0  0
 26 66  1  0  0  0  0
 27 67  1  0  0  0  0
 27 68  1  0  0  0  0
 27 69  1  0  0  0  0
 28 36  1  0  0  0  0
M  END
> <ConfScore>
-0.588151 

$$$$
4ago


 69 70  0  0  0  0  0  0  0  0999 V2000
   91.1554   91.2821  -49.2504 N   0  0  0  1  0  3  0  0  0  0  0  0
   90.7534   97.7544  -46.4197 N   0  3  0  1  0  4  0  0  0  0  0  0
   93.7278   98.0514  -49.5213 N   0  3  0  1  0  4  0  0  0  0  0  0
   91.2337   93.6144  -45.1525 C   0  0  0  1  0  3  0  0  0  0  0  0
   91.3933   92.5817  -46.1220 C   0  0  0  1  0  2  0  0  0  0  0  0
   91.5051   91.7512  -46.9740 C   0  0  0  1  0  2  0  0  0  0  0  0
   91.6473   90.7242  -48.0102 C   0  0  0  1  0  4  0  0  0  0  0  0
   90.5014   95.8938  -44.7858 C   0  0  0  1  0  3  0  0  0  0  0  0
   91.5924   93.4805  -43.8084 C   0  0  0  1  0  3  0  0  0  0  0  0
   89.9050   97.1660  -45.3350 C   0  0  0  1  0  4  0  0  0  0  0  0
   90.4967   97.0908  -47.7468 C   0  0  0  1  0  4  0  0  0  0  0  0
   90.7019   94.8197  -45.6475 C   0  0  0  1  0  3  0  0  0  0  0  0
   91.3808   94.5707  -42.9650 C   0  0  0  1  0  3  0  0  0  0  0  0
   90.8444   95.7888  -43.4150 C   0  0  0  1  0  3  0  0  0  0  0  0
   91.3433   97.7617  -48.8175 C   0  0  0  1  0  4  0  0  0  0  0  0
   92.7972   97.5381  -48.4064 C   0  0  0  1  0  4  0  0  0  0  0  0
   93.5544   97.3530  -50.8757 C   0  0  0  1  0  4  0  0  0  0  0  0
   93.8177   95.8684  -50.7035 C   0  0  0  1  0  4  0  0  0  0  0  0
   93.9383   99.5537  -49.6709 C   0  0  0  1  0  4  0  0  0  0  0  0
   92.6625  100.3555  -49.8991 C   0  0  0  1  0  4  0  0  0  0  0  0
   93.0942   98.2972  -47.1059 C   0  0  0  1  0  4  0  0  0  0  0  0
   92.2014   97.7111  -46.0244 C   0  0  0  1  0  4  0  0  0  0  0  0
   91.7174   92.3994  -49.7987 C   0  0  0  1  0  3  0  0  0  0  0  0
   91.5815   93.7064  -51.8653 C   0  0  0  1  0  4  0  0  0  0  0  0
   91.4326   94.9530  -50.9855 C   0  0  0  1  0  4  0  0  0  0  0  0
   90.6711   93.8820  -53.0880 C   0  0  0  1  0  4  0  0  0  0  0  0
   93.0511   93.5344  -52.2688 C   0  0  0  1  0  4  0  0  0  0  0  0
   90.6489   96.8591  -42.6002 O   0  0  0  1  0  2  0  0  0  0  0  0
   91.1461   92.6172  -51.0073 O   0  0  0  1  0  2  0  0  0  0  0  0
   92.6209   93.0361  -49.2779 O   0  0  0  1  0  1  0  0  0  0  0  0
   91.8884   94.4097  -40.9004 I   0  0  0  1  0  1  0  0  0  0  0  0
   91.0592   89.8353  -47.7401 H   0  0  0  1  0  1  0  0  0  0  0  0
   92.7050   90.4445  -48.1187 H   0  0  0  1  0  1  0  0  0  0  0  0
   90.3884   90.8415  -49.7164 H   0  0  0  1  0  1  0  0  0  0  0  0
   90.4985   98.7221  -46.5388 H   0  0  0  1  0  1  0  0  0  0  0  0
   90.9232   96.6382  -41.7172 H   0  0  0  1  0  1  0  0  0  0  0  0
   92.0220   92.5575  -43.4340 H   0  0  0  1  0  1  0  0  0  0  0  0
   88.9074   96.9442  -45.7438 H   0  0  0  1  0  1  0  0  0  0  0  0
   89.8129   97.8978  -44.5183 H   0  0  0  1  0  1  0  0  0  0  0  0
   94.6299   97.7332  -49.2065 H   0  0  0  1  0  1  0  0  0  0  0  0
   89.4322   97.1881  -48.0061 H   0  0  0  1  0  1  0  0  0  0  0  0
   90.7631   96.0255  -47.6822 H   0  0  0  1  0  1  0  0  0  0  0  0
   90.4485   94.9112  -46.6968 H   0  0  0  1  0  1  0  0  0  0  0  0
   91.1201   98.8379  -48.8623 H   0  0  0  1  0  1  0  0  0  0  0  0
   91.1494   97.3052  -49.7995 H   0  0  0  1  0  1  0  0  0  0  0  0
   92.9707   96.4629  -48.2491 H   0  0  0  1  0  1  0  0  0  0  0  0
   94.2669   97.7721  -51.6013 H   0  0  0  1  0  1  0  0  0  0  0  0
   92.5272   97.5051  -51.2402 H   0  0  0  1  0  1  0  0  0  0  0  0
   94.8445   95.7177  -50.3373 H   0  0  0  1  0  1  0  0  0  0  0  0
   93.6947   95.3594  -51.6710 H   0  0  0  1  0  1  0  0  0  0  0  0
   93.1050   95.4516  -49.9764 H   0  0  0  1  0  1  0  0  0  0  0  0
   94.6063   99.7217  -50.5298 H   0  0  0  1  0  1  0  0  0  0  0  0
   94.4181   99.9251  -48.7540 H   0  0  0  1  0  1  0  0  0  0  0  0
   92.9133  101.4226  -49.9940 H   0  0  0  1  0  1  0  0  0  0  0  0
   91.9833  100.2131  -49.0458 H   0  0  0  1  0  1  0  0  0  0  0  0
   92.1711  100.0106  -50.8206 H   0  0  0  1  0  1  0  0  0  0  0  0
   92.8741   99.3667  -47.2363 H   0  0  0  1  0  1  0  0  0  0  0  0
   94.1520   98.1709  -46.8298 H   0  0  0  1  0  1  0  0  0  0  0  0
   92.4926   96.6645  -45.8494 H   0  0  0  1  0  1  0  0  0  0  0  0
   92.3360   98.2893  -45.0985 H   0  0  0  1  0  1  0  0  0  0  0  0
   91.7307   95.8433  -51.5577 H   0  0  0  1  0  1  0  0  0  0  0  0
   92.0754   94.8559  -50.0992 H   0  0  0  1  0  1  0  0  0  0  0  0
   90.3847   95.0553  -50.6693 H   0  0  0  1  0  1  0  0  0  0  0  0
   89.6425   94.0822  -52.7532 H   0  0  0  1  0  1  0  0  0  0  0  0
   90.6867   92.9629  -53.6927 H   0  0  0  1  0  1  0  0  0  0  0  0
   91.0307   94.7252  -53.6948 H   0  0  0  1  0  1  0  0  0  0  0  0
   93.6818   93.5405  -51.3672 H   0  0  0  1  0  1  0  0  0  0  0  0
   93.3489   94.3607  -52.9302 H   0  0  0  1  0  1  0  0  0  0  0  0
   93.1760   92.5772  -52.7974 H   0  0  0  1  0  1  0  0  0  0  0  0
  1  7  1  0  0  0  0
  1 23  1  0  0  0  0
  1 34  1  0  0  0  0
  2 10  1  0  0  0  0
  2 11  1  0  0  0  0
  2 22  1  0  0  0  0
  2 35  1  0  0  0  0
  3 16  1  0  0  0  0
  3 17  1  0  0  0  0
  3 19  1  0  0  0  0
  3 40  1  0  0  0  0
  4  5  1  0  0  0  0
  4  9  2  0  0  0  0
  4 12  1  0  0  0  0
  5  6  3  0  0  0  0
  6  7  1  0  0  0  0
  7 32  1  0  0  0  0
  7 33  1  0  0  0  0
  8 10  1  0  0  0  0
  8 12  2  0  0  0  0
  8 14  1  0  0  0  0
  9 13  1  0  0  0  0
  9 37  1  0  0  0  0
 10 38  1  0  0  0  0
 10 39  1  0  0  0  0
 11 15  1  0  0  0  0
 11 41  1  0  0  0  0
 11 42  1  0  0  0  0
 12 43  1  0  0  0  0
 13 14  2  0  0  0  0
 13 31  1  0  0  0  0
 14 28  1  0  0  0  0
 15 16  1  0  0  0  0
 15 44  1  0  0  0  0
 15 45  1  0  0  0  0
 16 21  1  0  0  0  0
 16 46  1  0  0  0  0
 17 18  1  0  0  0  0
 17 47  1  0  0  0  0
 17 48  1  0  0  0  0
 18 49  1  0  0  0  0
 18 50  1  0  0  0  0
 18 51  1  0  0  0  0
 19 20  1  0  0  0  0
 19 52  1  0  0  0  0
 19 53  1  0  0  0  0
 20 54  1  0  0  0  0
 20 55  1  0  0  0  0
 20 56  1  0  0  0  0
 21 22  1  0  0  0  0
 21 57  1  0  0  0  0
 21 58  1  0  0  0  0
 22 59  1  0  0  0  0
 22 60  1  0  0  0  0
 23 29  1  0  0  0  0
 23 30  2  0  0  0  0
 24 25  1  0  0  0  0
 24 26  1  0  0  0  0
 24 27  1  0  0  0  0
 24 29  1  0  0  0  0
 25 61  1  0  0  0  0
 25 62  1  0  0  0  0
 25 63  1  0  0  0  0
 26 64  1  0  0  0  0
 26 65  1  0  0  0  0
 26 66  1  0  0  0  0
 27 67  1  0  0  0  0
 27 68  1  0  0  0  0
 27 69  1  0  0  0  0
 28 36  1  0  0  0  0
M  END
> <ConfScore>
-0.587119 

$$$$
4ago


 69 70  0  0  0  0  0  0  0  0999 V2000
  124.1149  100.5411  -49.3604 N   0  0  0  1  0  3  0  0  0  0  0  0
  124.3760  107.5889  -45.2369 N   0  3  0  1  0  4  0  0  0  0  0  0
  126.6759  111.1675  -45.8473 N   0  3  0  1  0  4  0  0  0  0  0  0
  124.4410  102.8420  -45.2570 C   0  0  0  1  0  3  0  0  0  0  0  0
  124.5030  101.8040  -46.2320 C   0  0  0  1  0  2  0  0  0  0  0  0
  124.5352  100.9709  -47.0882 C   0  0  0  1  0  2  0  0  0  0  0  0
  124.5792   99.9403  -48.1297 C   0  0  0  1  0  4  0  0  0  0  0  0
  123.8990  105.1710  -44.8720 C   0  0  0  1  0  3  0  0  0  0  0  0
  124.8080  102.6740  -43.9190 C   0  0  0  1  0  3  0  0  0  0  0  0
  123.4000  106.4840  -45.4060 C   0  0  0  1  0  4  0  0  0  0  0  0
  123.6655  108.9106  -45.1841 C   0  0  0  1  0  4  0  0  0  0  0  0
  124.0000  104.0880  -45.7400 C   0  0  0  1  0  3  0  0  0  0  0  0
  124.6970  103.7740  -43.0690 C   0  0  0  1  0  3  0  0  0  0  0  0
  124.2530  105.0330  -43.5070 C   0  0  0  1  0  3  0  0  0  0  0  0
  124.6953  109.9878  -44.8927 C   0  0  0  1  0  4  0  0  0  0  0  0
  125.6870  110.0033  -46.0457 C   0  0  0  1  0  4  0  0  0  0  0  0
  127.9879  111.0371  -46.6309 C   0  0  0  1  0  4  0  0  0  0  0  0
  127.6989  111.2086  -48.1108 C   0  0  0  1  0  4  0  0  0  0  0  0
  126.1423  112.5954  -45.8512 C   0  0  0  1  0  4  0  0  0  0  0  0
  124.9715  112.8398  -44.9067 C   0  0  0  1  0  4  0  0  0  0  0  0
  126.4343  108.6570  -46.0909 C   0  0  0  1  0  4  0  0  0  0  0  0
  125.4149  107.5563  -46.3132 C   0  0  0  1  0  4  0  0  0  0  0  0
  124.0181   99.8148  -50.5128 C   0  0  0  1  0  3  0  0  0  0  0  0
  123.2936  100.1247  -52.8316 C   0  0  0  1  0  4  0  0  0  0  0  0
  122.1879   99.0838  -52.6217 C   0  0  0  1  0  4  0  0  0  0  0  0
  124.5080   99.4061  -53.4345 C   0  0  0  1  0  4  0  0  0  0  0  0
  122.7802  101.2428  -53.7472 C   0  0  0  1  0  4  0  0  0  0  0  0
  124.1560  106.1120  -42.6860 O   0  0  0  1  0  2  0  0  0  0  0  0
  123.5602  100.6279  -51.4944 O   0  0  0  1  0  2  0  0  0  0  0  0
  124.2610   98.6198  -50.5902 O   0  0  0  1  0  1  0  0  0  0  0  0
  125.2210  103.5640  -41.0130 I   0  0  0  1  0  1  0  0  0  0  0  0
  123.9261   99.1002  -47.8533 H   0  0  0  1  0  1  0  0  0  0  0  0
  125.6094   99.5775  -48.2552 H   0  0  0  1  0  1  0  0  0  0  0  0
  123.8596  101.5077  -49.3686 H   0  0  0  1  0  1  0  0  0  0  0  0
  124.8452  107.4564  -44.3550 H   0  0  0  1  0  1  0  0  0  0  0  0
  124.4250  105.8660  -41.8080 H   0  0  0  1  0  1  0  0  0  0  0  0
  125.1680  101.7180  -43.5540 H   0  0  0  1  0  1  0  0  0  0  0  0
  122.4733  106.7492  -44.8746 H   0  0  0  1  0  1  0  0  0  0  0  0
  123.1862  106.3673  -46.4792 H   0  0  0  1  0  1  0  0  0  0  0  0
  126.9606  111.0418  -44.8895 H   0  0  0  1  0  1  0  0  0  0  0  0
  122.9074  108.8952  -44.3872 H   0  0  0  1  0  1  0  0  0  0  0  0
  123.1797  109.1117  -46.1503 H   0  0  0  1  0  1  0  0  0  0  0  0
  123.7390  104.2040  -46.7850 H   0  0  0  1  0  1  0  0  0  0  0  0
  125.2182  109.7613  -43.9517 H   0  0  0  1  0  1  0  0  0  0  0  0
  124.1998  110.9666  -44.8104 H   0  0  0  1  0  1  0  0  0  0  0  0
  125.1453  110.1459  -46.9930 H   0  0  0  1  0  1  0  0  0  0  0  0
  128.4268  110.0443  -46.4535 H   0  0  0  1  0  1  0  0  0  0  0  0
  128.6933  111.8146  -46.3008 H   0  0  0  1  0  1  0  0  0  0  0  0
  127.2427  112.1951  -48.2839 H   0  0  0  1  0  1  0  0  0  0  0  0
  127.0067  110.4208  -48.4431 H   0  0  0  1  0  1  0  0  0  0  0  0
  128.6383  111.1351  -48.6786 H   0  0  0  1  0  1  0  0  0  0  0  0
  125.8126  112.8346  -46.8740 H   0  0  0  1  0  1  0  0  0  0  0  0
  126.9627  113.2681  -45.5627 H   0  0  0  1  0  1  0  0  0  0  0  0
  125.2765  112.6011  -43.8769 H   0  0  0  1  0  1  0  0  0  0  0  0
  124.1270  112.1977  -45.1970 H   0  0  0  1  0  1  0  0  0  0  0  0
  124.6667  113.8950  -44.9640 H   0  0  0  1  0  1  0  0  0  0  0  0
  126.9602  108.4908  -45.1395 H   0  0  0  1  0  1  0  0  0  0  0  0
  127.1631  108.6630  -46.9154 H   0  0  0  1  0  1  0  0  0  0  0  0
  124.9303  107.7015  -47.2905 H   0  0  0  1  0  1  0  0  0  0  0  0
  125.9238  106.5815  -46.2974 H   0  0  0  1  0  1  0  0  0  0  0  0
  121.9135   98.6402  -53.5895 H   0  0  0  1  0  1  0  0  0  0  0  0
  121.3064   99.5685  -52.1788 H   0  0  0  1  0  1  0  0  0  0  0  0
  122.5504   98.2949  -51.9473 H   0  0  0  1  0  1  0  0  0  0  0  0
  124.7832   98.5534  -52.7963 H   0  0  0  1  0  1  0  0  0  0  0  0
  125.3553  100.1053  -53.4964 H   0  0  0  1  0  1  0  0  0  0  0  0
  124.2574   99.0452  -54.4421 H   0  0  0  1  0  1  0  0  0  0  0  0
  121.8392  101.6447  -53.3427 H   0  0  0  1  0  1  0  0  0  0  0  0
  122.6035  100.8394  -54.7547 H   0  0  0  1  0  1  0  0  0  0  0  0
  123.5301  102.0466  -53.7994 H   0  0  0  1  0  1  0  0  0  0  0  0
  1  7  1  0  0  0  0
  1 23  1  0  0  0  0
  1 34  1  0  0  0  0
  2 10  1  0  0  0  0
  2 11  1  0  0  0  0
  2 22  1  0  0  0  0
  2 35  1  0  0  0  0
  3 16  1  0  0  0  0
  3 17  1  0  0  0  0
  3 19  1  0  0  0  0
  3 40  1  0  0  0  0
  4  5  1  0  0  0  0
  4  9  2  0  0  0  0
  4 12  1  0  0  0  0
  5  6  3  0  0  0  0
  6  7  1  0  0  0  0
  7 32  1  0  0  0  0
  7 33  1  0  0  0  0
  8 10  1  0  0  0  0
  8 12  2  0  0  0  0
  8 14  1  0  0  0  0
  9 13  1  0  0  0  0
  9 37  1  0  0  0  0
 10 38  1  0  0  0  0
 10 39  1  0  0  0  0
 11 15  1  0  0  0  0
 11 41  1  0  0  0  0
 11 42  1  0  0  0  0
 12 43  1  0  0  0  0
 13 14  2  0  0  0  0
 13 31  1  0  0  0  0
 14 28  1  0  0  0  0
 15 16  1  0  0  0  0
 15 44  1  0  0  0  0
 15 45  1  0  0  0  0
 16 21  1  0  0  0  0
 16 46  1  0  0  0  0
 17 18  1  0  0  0  0
 17 47  1  0  0  0  0
 17 48  1  0  0  0  0
 18 49  1  0  0  0  0
 18 50  1  0  0  0  0
 18 51  1  0  0  0  0
 19 20  1  0  0  0  0
 19 52  1  0  0  0  0
 19 53  1  0  0  0  0
 20 54  1  0  0  0  0
 20 55  1  0  0  0  0
 20 56  1  0  0  0  0
 21 22  1  0  0  0  0
 21 57  1  0  0  0  0
 21 58  1  0  0  0  0
 22 59  1  0  0  0  0
 22 60  1  0  0  0  0
 23 29  1  0  0  0  0
 23 30  2  0  0  0  0
 24 25  1  0  0  0  0
 24 26  1  0  0  0  0
 24 27  1  0  0  0  0
 24 29  1  0  0  0  0
 25 61  1  0  0  0  0
 25 62  1  0  0  0  0
 25 63  1  0  0  0  0
 26 64  1  0  0  0  0
 26 65  1  0  0  0  0
 26 66  1  0  0  0  0
 27 67  1  0  0  0  0
 27 68  1  0  0  0  0
 27 69  1  0  0  0  0
 28 36  1  0  0  0  0
M  END
> <ConfScore>
-0.585439 

$$$$
4ago


 69 70  0  0  0  0  0  0  0  0999 V2000
   91.1554   91.2821  -49.2504 N   0  0  0  1  0  3  0  0  0  0  0  0
   90.9610   98.1106  -45.8200 N   0  3  0  1  0  4  0  0  0  0  0  0
   92.9428  101.0680  -48.2452 N   0  3  0  1  0  4  0  0  0  0  0  0
   91.2337   93.6144  -45.1525 C   0  0  0  1  0  3  0  0  0  0  0  0
   91.3933   92.5817  -46.1220 C   0  0  0  1  0  2  0  0  0  0  0  0
   91.5051   91.7512  -46.9740 C   0  0  0  1  0  2  0  0  0  0  0  0
   91.6473   90.7242  -48.0102 C   0  0  0  1  0  4  0  0  0  0  0  0
   90.5014   95.8938  -44.7858 C   0  0  0  1  0  3  0  0  0  0  0  0
   91.5924   93.4805  -43.8084 C   0  0  0  1  0  3  0  0  0  0  0  0
   89.9050   97.1660  -45.3350 C   0  0  0  1  0  4  0  0  0  0  0  0
   90.4979   99.5420  -45.7541 C   0  0  0  1  0  4  0  0  0  0  0  0
   90.7019   94.8197  -45.6475 C   0  0  0  1  0  3  0  0  0  0  0  0
   91.3808   94.5707  -42.9650 C   0  0  0  1  0  3  0  0  0  0  0  0
   90.8444   95.7888  -43.4150 C   0  0  0  1  0  3  0  0  0  0  0  0
   91.6251  100.4573  -46.2066 C   0  0  0  1  0  4  0  0  0  0  0  0
   91.9172  100.0804  -47.6576 C   0  0  0  1  0  4  0  0  0  0  0  0
   93.0106  101.0885  -49.7773 C   0  0  0  1  0  4  0  0  0  0  0  0
   92.9264   99.6643  -50.2949 C   0  0  0  1  0  4  0  0  0  0  0  0
   93.0461  102.4656  -47.6456 C   0  0  0  1  0  4  0  0  0  0  0  0
   91.9349  103.4212  -48.0637 C   0  0  0  1  0  4  0  0  0  0  0  0
   92.4870   98.6567  -47.7221 C   0  0  0  1  0  4  0  0  0  0  0  0
   91.4164   97.7151  -47.1951 C   0  0  0  1  0  4  0  0  0  0  0  0
   91.7675   92.3507  -49.8405 C   0  0  0  1  0  3  0  0  0  0  0  0
   91.5486   93.7151  -51.8624 C   0  0  0  1  0  4  0  0  0  0  0  0
   93.0135   93.3628  -52.1457 C   0  0  0  1  0  4  0  0  0  0  0  0
   91.5186   95.0904  -51.1825 C   0  0  0  1  0  4  0  0  0  0  0  0
   90.7555   93.7106  -53.1750 C   0  0  0  1  0  4  0  0  0  0  0  0
   90.6489   96.8591  -42.6002 O   0  0  0  1  0  2  0  0  0  0  0  0
   91.0972   92.6542  -50.9776 O   0  0  0  1  0  2  0  0  0  0  0  0
   92.7811   92.8809  -49.4110 O   0  0  0  1  0  1  0  0  0  0  0  0
   91.8884   94.4097  -40.9004 I   0  0  0  1  0  1  0  0  0  0  0  0
   91.0592   89.8353  -47.7401 H   0  0  0  1  0  1  0  0  0  0  0  0
   92.7050   90.4445  -48.1187 H   0  0  0  1  0  1  0  0  0  0  0  0
   90.3510   90.8778  -49.6852 H   0  0  0  1  0  1  0  0  0  0  0  0
   91.7568   98.0474  -45.2051 H   0  0  0  1  0  1  0  0  0  0  0  0
   90.9232   96.6382  -41.7172 H   0  0  0  1  0  1  0  0  0  0  0  0
   92.0220   92.5575  -43.4340 H   0  0  0  1  0  1  0  0  0  0  0  0
   89.2396   96.9139  -46.1747 H   0  0  0  1  0  1  0  0  0  0  0  0
   89.3238   97.6587  -44.5409 H   0  0  0  1  0  1  0  0  0  0  0  0
   93.8179  100.6483  -47.9767 H   0  0  0  1  0  1  0  0  0  0  0  0
   90.2166   99.7896  -44.7200 H   0  0  0  1  0  1  0  0  0  0  0  0
   89.6280   99.6772  -46.4137 H   0  0  0  1  0  1  0  0  0  0  0  0
   90.4485   94.9112  -46.6968 H   0  0  0  1  0  1  0  0  0  0  0  0
   92.5181  100.3002  -45.5838 H   0  0  0  1  0  1  0  0  0  0  0  0
   91.3121  101.5100  -46.1409 H   0  0  0  1  0  1  0  0  0  0  0  0
   90.9856  100.1274  -48.2415 H   0  0  0  1  0  1  0  0  0  0  0  0
   93.9595  101.5422  -50.0989 H   0  0  0  1  0  1  0  0  0  0  0  0
   92.1694  101.6756  -50.1758 H   0  0  0  1  0  1  0  0  0  0  0  0
   93.7766   99.0824  -49.9081 H   0  0  0  1  0  1  0  0  0  0  0  0
   92.9563   99.6713  -51.3945 H   0  0  0  1  0  1  0  0  0  0  0  0
   91.9852   99.2063  -49.9562 H   0  0  0  1  0  1  0  0  0  0  0  0
   94.0077  102.9015  -47.9575 H   0  0  0  1  0  1  0  0  0  0  0  0
   93.0236  102.3707  -46.5504 H   0  0  0  1  0  1  0  0  0  0  0  0
   90.9617  103.0025  -47.7667 H   0  0  0  1  0  1  0  0  0  0  0  0
   91.9587  103.5549  -49.1551 H   0  0  0  1  0  1  0  0  0  0  0  0
   92.0816  104.3938  -47.5716 H   0  0  0  1  0  1  0  0  0  0  0  0
   93.3904   98.5848  -47.0993 H   0  0  0  1  0  1  0  0  0  0  0  0
   92.7364   98.3981  -48.7623 H   0  0  0  1  0  1  0  0  0  0  0  0
   90.5534   97.7382  -47.8774 H   0  0  0  1  0  1  0  0  0  0  0  0
   91.8261   96.6953  -47.1557 H   0  0  0  1  0  1  0  0  0  0  0  0
   93.4524   94.1240  -52.8064 H   0  0  0  1  0  1  0  0  0  0  0  0
   93.0668   92.3798  -52.6346 H   0  0  0  1  0  1  0  0  0  0  0  0
   93.5727   93.3329  -51.1998 H   0  0  0  1  0  1  0  0  0  0  0  0
   92.1756   95.0775  -50.3003 H   0  0  0  1  0  1  0  0  0  0  0  0
   90.4897   95.3229  -50.8691 H   0  0  0  1  0  1  0  0  0  0  0  0
   91.8674   95.8566  -51.8894 H   0  0  0  1  0  1  0  0  0  0  0  0
   90.9074   92.7511  -53.6917 H   0  0  0  1  0  1  0  0  0  0  0  0
   91.1046   94.5321  -53.8171 H   0  0  0  1  0  1  0  0  0  0  0  0
   89.6851   93.8442  -52.9566 H   0  0  0  1  0  1  0  0  0  0  0  0
  1  7  1  0  0  0  0
  1 23  1  0  0  0  0
  1 34  1  0  0  0  0
  2 10  1  0  0  0  0
  2 11  1  0  0  0  0
  2 22  1  0  0  0  0
  2 35  1  0  0  0  0
  3 16  1  0  0  0  0
  3 17  1  0  0  0  0
  3 19  1  0  0  0  0
  3 40  1  0  0  0  0
  4  5  1  0  0  0  0
  4  9  2  0  0  0  0
  4 12  1  0  0  0  0
  5  6  3  0  0  0  0
  6  7  1  0  0  0  0
  7 32  1  0  0  0  0
  7 33  1  0  0  0  0
  8 10  1  0  0  0  0
  8 12  2  0  0  0  0
  8 14  1  0  0  0  0
  9 13  1  0  0  0  0
  9 37  1  0  0  0  0
 10 38  1  0  0  0  0
 10 39  1  0  0  0  0
 11 15  1  0  0  0  0
 11 41  1  0  0  0  0
 11 42  1  0  0  0  0
 12 43  1  0  0  0  0
 13 14  2  0  0  0  0
 13 31  1  0  0  0  0
 14 28  1  0  0  0  0
 15 16  1  0  0  0  0
 15 44  1  0  0  0  0
 15 45  1  0  0  0  0
 16 21  1  0  0  0  0
 16 46  1  0  0  0  0
 17 18  1  0  0  0  0
 17 47  1  0  0  0  0
 17 48  1  0  0  0  0
 18 49  1  0  0  0  0
 18 50  1  0  0  0  0
 18 51  1  0  0  0  0
 19 20  1  0  0  0  0
 19 52  1  0  0  0  0
 19 53  1  0  0  0  0
 20 54  1  0  0  0  0
 20 55  1  0  0  0  0
 20 56  1  0  0  0  0
 21 22  1  0  0  0  0
 21 57  1  0  0  0  0
 21 58  1  0  0  0  0
 22 59  1  0  0  0  0
 22 60  1  0  0  0  0
 23 29  1  0  0  0  0
 23 30  2  0  0  0  0
 24 25  1  0  0  0  0
 24 26  1  0  0  0  0
 24 27  1  0  0  0  0
 24 29  1  0  0  0  0
 25 61  1  0  0  0  0
 25 62  1  0  0  0  0
 25 63  1  0  0  0  0
 26 64  1  0  0  0  0
 26 65  1  0  0  0  0
 26 66  1  0  0  0  0
 27 67  1  0  0  0  0
 27 68  1  0  0  0  0
 27 69  1  0  0  0  0
 28 36  1  0  0  0  0
M  END
> <ConfScore>
-0.575037 

$$$$
4ago


 69 70  0  0  0  0  0  0  0  0999 V2000
   91.1554   91.2821  -49.2504 N   0  0  0  1  0  3  0  0  0  0  0  0
   90.8551   98.3182  -45.2242 N   0  3  0  1  0  4  0  0  0  0  0  0
   94.5428  100.4934  -44.7500 N   0  3  0  1  0  4  0  0  0  0  0  0
   91.2337   93.6144  -45.1525 C   0  0  0  1  0  3  0  0  0  0  0  0
   91.3933   92.5817  -46.1220 C   0  0  0  1  0  2  0  0  0  0  0  0
   91.5051   91.7512  -46.9740 C   0  0  0  1  0  2  0  0  0  0  0  0
   91.6473   90.7242  -48.0102 C   0  0  0  1  0  4  0  0  0  0  0  0
   90.5014   95.8938  -44.7858 C   0  0  0  1  0  3  0  0  0  0  0  0
   91.5924   93.4805  -43.8084 C   0  0  0  1  0  3  0  0  0  0  0  0
   89.9050   97.1660  -45.3350 C   0  0  0  1  0  4  0  0  0  0  0  0
   91.8509   98.3271  -46.3538 C   0  0  0  1  0  4  0  0  0  0  0  0
   90.7019   94.8197  -45.6475 C   0  0  0  1  0  3  0  0  0  0  0  0
   91.3808   94.5707  -42.9650 C   0  0  0  1  0  3  0  0  0  0  0  0
   90.8444   95.7888  -43.4150 C   0  0  0  1  0  3  0  0  0  0  0  0
   92.7533   99.5440  -46.2202 C   0  0  0  1  0  4  0  0  0  0  0  0
   93.4883   99.3797  -44.8915 C   0  0  0  1  0  4  0  0  0  0  0  0
   95.6296  100.2204  -43.7028 C   0  0  0  1  0  4  0  0  0  0  0  0
   94.9914   99.5819  -42.4829 C   0  0  0  1  0  4  0  0  0  0  0  0
   95.1071  101.1374  -46.0110 C   0  0  0  1  0  4  0  0  0  0  0  0
   94.0648  101.7803  -46.9183 C   0  0  0  1  0  4  0  0  0  0  0  0
   92.4908   99.4724  -43.7286 C   0  0  0  1  0  4  0  0  0  0  0  0
   91.5143   98.3169  -43.8750 C   0  0  0  1  0  4  0  0  0  0  0  0
   91.7270   92.3906  -49.8065 C   0  0  0  1  0  3  0  0  0  0  0  0
   91.5809   93.7031  -51.8689 C   0  0  0  1  0  4  0  0  0  0  0  0
   93.0484   93.3812  -52.1738 C   0  0  0  1  0  4  0  0  0  0  0  0
   91.5362   95.0568  -51.1476 C   0  0  0  1  0  4  0  0  0  0  0  0
   90.7774   93.7263  -53.1750 C   0  0  0  1  0  4  0  0  0  0  0  0
   90.6489   96.8591  -42.6002 O   0  0  0  1  0  2  0  0  0  0  0  0
   91.1521   92.6095  -51.0132 O   0  0  0  1  0  2  0  0  0  0  0  0
   92.6402   93.0194  -49.2930 O   0  0  0  1  0  1  0  0  0  0  0  0
   91.8884   94.4097  -40.9004 I   0  0  0  1  0  1  0  0  0  0  0  0
   91.0592   89.8353  -47.7401 H   0  0  0  1  0  1  0  0  0  0  0  0
   92.7050   90.4445  -48.1187 H   0  0  0  1  0  1  0  0  0  0  0  0
   90.3812   90.8480  -49.7106 H   0  0  0  1  0  1  0  0  0  0  0  0
   90.3325   99.1758  -45.3077 H   0  0  0  1  0  1  0  0  0  0  0  0
   90.9232   96.6382  -41.7172 H   0  0  0  1  0  1  0  0  0  0  0  0
   92.0220   92.5575  -43.4340 H   0  0  0  1  0  1  0  0  0  0  0  0
   89.6532   97.0126  -46.3954 H   0  0  0  1  0  1  0  0  0  0  0  0
   88.9903   97.4031  -44.7709 H   0  0  0  1  0  1  0  0  0  0  0  0
   94.0061  101.2417  -44.3422 H   0  0  0  1  0  1  0  0  0  0  0  0
   91.3163   98.3702  -47.3142 H   0  0  0  1  0  1  0  0  0  0  0  0
   92.4601   97.4121  -46.3134 H   0  0  0  1  0  1  0  0  0  0  0  0
   90.4485   94.9112  -46.6968 H   0  0  0  1  0  1  0  0  0  0  0  0
   92.1530  100.4658  -46.2132 H   0  0  0  1  0  1  0  0  0  0  0  0
   93.4719   99.5800  -47.0524 H   0  0  0  1  0  1  0  0  0  0  0  0
   93.9854   98.3981  -44.8684 H   0  0  0  1  0  1  0  0  0  0  0  0
   96.1107  101.1666  -43.4145 H   0  0  0  1  0  1  0  0  0  0  0  0
   96.3839   99.5384  -44.1234 H   0  0  0  1  0  1  0  0  0  0  0  0
   94.2360  100.2641  -42.0643 H   0  0  0  1  0  1  0  0  0  0  0  0
   95.7648   99.3820  -41.7265 H   0  0  0  1  0  1  0  0  0  0  0  0
   94.5095   98.6366  -42.7738 H   0  0  0  1  0  1  0  0  0  0  0  0
   95.6298  100.3592  -46.5881 H   0  0  0  1  0  1  0  0  0  0  0  0
   95.8240  101.9138  -45.7075 H   0  0  0  1  0  1  0  0  0  0  0  0
   94.5638  102.2163  -47.7967 H   0  0  0  1  0  1  0  0  0  0  0  0
   93.5371  102.5716  -46.3661 H   0  0  0  1  0  1  0  0  0  0  0  0
   93.3430  101.0184  -47.2469 H   0  0  0  1  0  1  0  0  0  0  0  0
   91.9504  100.4291  -43.7724 H   0  0  0  1  0  1  0  0  0  0  0  0
   93.0238   99.3952  -42.7689 H   0  0  0  1  0  1  0  0  0  0  0  0
   92.0595   97.3700  -43.7450 H   0  0  0  1  0  1  0  0  0  0  0  0
   90.7396   98.4040  -43.0993 H   0  0  0  1  0  1  0  0  0  0  0  0
   93.4709   94.1684  -52.8146 H   0  0  0  1  0  1  0  0  0  0  0  0
   93.1122   92.4142  -52.6925 H   0  0  0  1  0  1  0  0  0  0  0  0
   93.6156   93.3312  -51.2335 H   0  0  0  1  0  1  0  0  0  0  0  0
   92.1876   95.0217  -50.2618 H   0  0  0  1  0  1  0  0  0  0  0  0
   90.5037   95.2721  -50.8341 H   0  0  0  1  0  1  0  0  0  0  0  0
   91.8839   95.8466  -51.8284 H   0  0  0  1  0  1  0  0  0  0  0  0
   90.9391   92.7851  -53.7216 H   0  0  0  1  0  1  0  0  0  0  0  0
   91.1093   94.5718  -53.7947 H   0  0  0  1  0  1  0  0  0  0  0  0
   89.7070   93.8374  -52.9446 H   0  0  0  1  0  1  0  0  0  0  0  0
  1  7  1  0  0  0  0
  1 23  1  0  0  0  0
  1 34  1  0  0  0  0
  2 10  1  0  0  0  0
  2 11  1  0  0  0  0
  2 22  1  0  0  0  0
  2 35  1  0  0  0  0
  3 16  1  0  0  0  0
  3 17  1  0  0  0  0
  3 19  1  0  0  0  0
  3 40  1  0  0  0  0
  4  5  1  0  0  0  0
  4  9  2  0  0  0  0
  4 12  1  0  0  0  0
  5  6  3  0  0  0  0
  6  7  1  0  0  0  0
  7 32  1  0  0  0  0
  7 33  1  0  0  0  0
  8 10  1  0  0  0  0
  8 12  2  0  0  0  0
  8 14  1  0  0  0  0
  9 13  1  0  0  0  0
  9 37  1  0  0  0  0
 10 38  1  0  0  0  0
 10 39  1  0  0  0  0
 11 15  1  0  0  0  0
 11 41  1  0  0  0  0
 11 42  1  0  0  0  0
 12 43  1  0  0  0  0
 13 14  2  0  0  0  0
 13 31  1  0  0  0  0
 14 28  1  0  0  0  0
 15 16  1  0  0  0  0
 15 44  1  0  0  0  0
 15 45  1  0  0  0  0
 16 21  1  0  0  0  0
 16 46  1  0  0  0  0
 17 18  1  0  0  0  0
 17 47  1  0  0  0  0
 17 48  1  0  0  0  0
 18 49  1  0  0  0  0
 18 50  1  0  0  0  0
 18 51  1  0  0  0  0
 19 20  1  0  0  0  0
 19 52  1  0  0  0  0
 19 53  1  0  0  0  0
 20 54  1  0  0  0  0
 20 55  1  0  0  0  0
 20 56  1  0  0  0  0
 21 22  1  0  0  0  0
 21 57  1  0  0  0  0
 21 58  1  0  0  0  0
 22 59  1  0  0  0  0
 22 60  1  0  0  0  0
 23 29  1  0  0  0  0
 23 30  2  0  0  0  0
 24 25  1  0  0  0  0
 24 26  1  0  0  0  0
 24 27  1  0  0  0  0
 24 29  1  0  0  0  0
 25 61  1  0  0  0  0
 25 62  1  0  0  0  0
 25 63  1  0  0  0  0
 26 64  1  0  0  0  0
 26 65  1  0  0  0  0
 26 66  1  0  0  0  0
 27 67  1  0  0  0  0
 27 68  1  0  0  0  0
 27 69  1  0  0  0  0
 28 36  1  0  0  0  0
M  END
> <ConfScore>
-0.574497 

$$$$
4ago


 69 70  0  0  0  0  0  0  0  0999 V2000
    8.9295    1.2217   36.2499 N   0  0  0  1  0  3  0  0  0  0  0  0
    5.1131    2.7337   29.4564 N   0  3  0  1  0  4  0  0  0  0  0  0
    2.4844    4.4024   31.3898 N   0  3  0  1  0  4  0  0  0  0  0  0
    8.5930    1.3120   31.5470 C   0  0  0  1  0  3  0  0  0  0  0  0
    8.4906    0.8759   32.9002 C   0  0  0  1  0  2  0  0  0  0  0  0
    8.4297    0.5591   34.0509 C   0  0  0  1  0  2  0  0  0  0  0  0
    8.3493    0.1592   35.4589 C   0  0  0  1  0  4  0  0  0  0  0  0
    7.6270    2.3630   29.6260 C   0  0  0  1  0  3  0  0  0  0  0  0
    9.7440    1.0760   30.8280 C   0  0  0  1  0  3  0  0  0  0  0  0
    6.4640    3.0610   28.9950 C   0  0  0  1  0  4  0  0  0  0  0  0
    5.0848    2.7889   30.9264 C   0  0  0  1  0  4  0  0  0  0  0  0
    7.5450    1.9700   30.9520 C   0  0  0  1  0  3  0  0  0  0  0  0
    9.8450    1.4950   29.5070 C   0  0  0  1  0  3  0  0  0  0  0  0
    8.7880    2.1430   28.9040 C   0  0  0  1  0  3  0  0  0  0  0  0
    3.7561    2.2506   31.4078 C   0  0  0  1  0  4  0  0  0  0  0  0
    2.5681    2.9915   30.7777 C   0  0  0  1  0  4  0  0  0  0  0  0
    3.4177    5.4374   30.7494 C   0  0  0  1  0  4  0  0  0  0  0  0
    3.4082    6.6997   31.5917 C   0  0  0  1  0  4  0  0  0  0  0  0
    1.1131    4.9850   31.7118 C   0  0  0  1  0  4  0  0  0  0  0  0
    1.1322    6.1559   32.6873 C   0  0  0  1  0  4  0  0  0  0  0  0
    2.7007    3.1218   29.2618 C   0  0  0  1  0  4  0  0  0  0  0  0
    4.0833    3.6240   28.8874 C   0  0  0  1  0  4  0  0  0  0  0  0
    8.4634    1.5118   37.5003 C   0  0  0  1  0  3  0  0  0  0  0  0
    8.9251    3.0809   39.3230 C   0  0  0  1  0  4  0  0  0  0  0  0
    9.1995    1.9021   40.2639 C   0  0  0  1  0  4  0  0  0  0  0  0
    7.4579    3.4936   39.5014 C   0  0  0  1  0  4  0  0  0  0  0  0
    9.8848    4.2322   39.6478 C   0  0  0  1  0  4  0  0  0  0  0  0
    8.8845    2.5615   27.6143 O   0  0  0  1  0  2  0  0  0  0  0  0
    9.1877    2.5418   37.9991 O   0  0  0  1  0  2  0  0  0  0  0  0
    7.5760    0.8866   38.0612 O   0  0  0  1  0  1  0  0  0  0  0  0
   11.6378    1.1351   28.4106 I   0  0  0  1  0  1  0  0  0  0  0  0
    8.9097   -0.7736   35.6161 H   0  0  0  1  0  1  0  0  0  0  0  0
    7.2990    0.0085   35.7467 H   0  0  0  1  0  1  0  0  0  0  0  0
    9.6872    1.7551   35.8745 H   0  0  0  1  0  1  0  0  0  0  0  0
    4.8924    1.8043   29.1355 H   0  0  0  1  0  1  0  0  0  0  0  0
    9.1378    1.8297   27.0629 H   0  0  0  1  0  1  0  0  0  0  0  0
   10.5760    0.5603   31.2955 H   0  0  0  1  0  1  0  0  0  0  0  0
    6.6083    4.1404   29.1550 H   0  0  0  1  0  1  0  0  0  0  0  0
    6.5003    2.8413   27.9173 H   0  0  0  1  0  1  0  0  0  0  0  0
    2.8830    4.2601   32.3037 H   0  0  0  1  0  1  0  0  0  0  0  0
    5.2044    3.8304   31.2596 H   0  0  0  1  0  1  0  0  0  0  0  0
    5.9019    2.1764   31.3352 H   0  0  0  1  0  1  0  0  0  0  0  0
    6.6491    2.1830   31.5226 H   0  0  0  1  0  1  0  0  0  0  0  0
    3.7038    2.3623   32.5009 H   0  0  0  1  0  1  0  0  0  0  0  0
    3.6891    1.1847   31.1439 H   0  0  0  1  0  1  0  0  0  0  0  0
    1.6451    2.4370   31.0052 H   0  0  0  1  0  1  0  0  0  0  0  0
    3.0688    5.6700   29.7325 H   0  0  0  1  0  1  0  0  0  0  0  0
    4.4402    5.0331   30.7031 H   0  0  0  1  0  1  0  0  0  0  0  0
    3.7576    6.4651   32.6086 H   0  0  0  1  0  1  0  0  0  0  0  0
    2.3853    7.1017   31.6387 H   0  0  0  1  0  1  0  0  0  0  0  0
    4.0761    7.4476   31.1388 H   0  0  0  1  0  1  0  0  0  0  0  0
    0.4957    4.1853   32.1492 H   0  0  0  1  0  1  0  0  0  0  0  0
    0.6578    5.3284   30.7718 H   0  0  0  1  0  1  0  0  0  0  0  0
    0.1035    6.5072   32.8569 H   0  0  0  1  0  1  0  0  0  0  0  0
    1.7341    6.9739   32.2652 H   0  0  0  1  0  1  0  0  0  0  0  0
    1.5716    5.8321   33.6421 H   0  0  0  1  0  1  0  0  0  0  0  0
    1.9464    3.8319   28.8930 H   0  0  0  1  0  1  0  0  0  0  0  0
    2.5359    2.1373   28.7986 H   0  0  0  1  0  1  0  0  0  0  0  0
    4.1808    3.6404   27.7915 H   0  0  0  1  0  1  0  0  0  0  0  0
    4.2214    4.6406   29.2835 H   0  0  0  1  0  1  0  0  0  0  0  0
    8.5341    1.0654   40.0070 H   0  0  0  1  0  1  0  0  0  0  0  0
    9.0146    2.2105   41.3026 H   0  0  0  1  0  1  0  0  0  0  0  0
   10.2461    1.5835   40.1566 H   0  0  0  1  0  1  0  0  0  0  0  0
    7.3105    3.8938   40.5154 H   0  0  0  1  0  1  0  0  0  0  0  0
    6.8094    2.6167   39.3562 H   0  0  0  1  0  1  0  0  0  0  0  0
    7.2014    4.2647   38.7611 H   0  0  0  1  0  1  0  0  0  0  0  0
    9.6805    5.0800   38.9768 H   0  0  0  1  0  1  0  0  0  0  0  0
   10.9221    3.8954   39.5078 H   0  0  0  1  0  1  0  0  0  0  0  0
    9.7385    4.5473   40.6921 H   0  0  0  1  0  1  0  0  0  0  0  0
  1  7  1  0  0  0  0
  1 23  1  0  0  0  0
  1 34  1  0  0  0  0
  2 10  1  0  0  0  0
  2 11  1  0  0  0  0
  2 22  1  0  0  0  0
  2 35  1  0  0  0  0
  3 16  1  0  0  0  0
  3 17  1  0  0  0  0
  3 19  1  0  0  0  0
  3 40  1  0  0  0  0
  4  5  1  0  0  0  0
  4  9  2  0  0  0  0
  4 12  1  0  0  0  0
  5  6  3  0  0  0  0
  6  7  1  0  0  0  0
  7 32  1  0  0  0  0
  7 33  1  0  0  0  0
  8 10  1  0  0  0  0
  8 12  2  0  0  0  0
  8 14  1  0  0  0  0
  9 13  1  0  0  0  0
  9 37  1  0  0  0  0
 10 38  1  0  0  0  0
 10 39  1  0  0  0  0
 11 15  1  0  0  0  0
 11 41  1  0  0  0  0
 11 42  1  0  0  0  0
 12 43  1  0  0  0  0
 13 14  2  0  0  0  0
 13 31  1  0  0  0  0
 14 28  1  0  0  0  0
 15 16  1  0  0  0  0
 15 44  1  0  0  0  0
 15 45  1  0  0  0  0
 16 21  1  0  0  0  0
 16 46  1  0  0  0  0
 17 18  1  0  0  0  0
 17 47  1  0  0  0  0
 17 48  1  0  0  0  0
 18 49  1  0  0  0  0
 18 50  1  0  0  0  0
 18 51  1  0  0  0  0
 19 20  1  0  0  0  0
 19 52  1  0  0  0  0
 19 53  1  0  0  0  0
 20 54  1  0  0  0  0
 20 55  1  0  0  0  0
 20 56  1  0  0  0  0
 21 22  1  0  0  0  0
 21 57  1  0  0  0  0
 21 58  1  0  0  0  0
 22 59  1  0  0  0  0
 22 60  1  0  0  0  0
 23 29  1  0  0  0  0
 23 30  2  0  0  0  0
 24 25  1  0  0  0  0
 24 26  1  0  0  0  0
 24 27  1  0  0  0  0
 24 29  1  0  0  0  0
 25 61  1  0  0  0  0
 25 62  1  0  0  0  0
 25 63  1  0  0  0  0
 26 64  1  0  0  0  0
 26 65  1  0  0  0  0
 26 66  1  0  0  0  0
 27 67  1  0  0  0  0
 27 68  1  0  0  0  0
 27 69  1  0  0  0  0
 28 36  1  0  0  0  0
M  END
> <ConfScore>
-0.550265 

$$$$
