4agl


 25 25  0  0  0  0  0  0  0  0999 V2000
  124.3770  107.8470  -44.6710 N   0  3  0  1  0  4  0  0  0  0  0  0
  124.0410  105.3610  -44.8150 C   0  0  0  1  0  3  0  0  0  0  0  0
  124.3680  105.1510  -43.4700 C   0  0  0  1  0  3  0  0  0  0  0  0
  124.6850  103.8760  -43.0070 C   0  0  0  1  0  3  0  0  0  0  0  0
  123.6670  106.7390  -45.3390 C   0  0  0  1  0  4  0  0  0  0  0  0
  124.6740  102.7730  -43.8740 C   0  0  0  1  0  3  0  0  0  0  0  0
  124.0340  104.2490  -45.6830 C   0  0  0  1  0  3  0  0  0  0  0  0
  125.7860  107.9980  -45.0870 C   0  0  0  1  0  4  0  0  0  0  0  0
  124.3470  102.9640  -45.2180 C   0  0  0  1  0  3  0  0  0  0  0  0
  123.6420  109.1170  -44.7780 C   0  0  0  1  0  4  0  0  0  0  0  0
  124.4050  106.2300  -42.6310 O   0  0  0  1  0  2  0  0  0  0  0  0
  125.1380  103.6400  -40.9640 I   0  0  0  1  0  1  0  0  0  0  0  0
  124.3140  101.3570  -46.5570 I   0  0  0  1  0  1  0  0  0  0  0  0
  122.5860  106.8830  -45.1940 H   0  0  0  1  0  1  0  0  0  0  0  0
  123.9000  106.7760  -46.4140 H   0  0  0  1  0  1  0  0  0  0  0  0
  124.3990  107.6110  -43.6920 H   0  0  0  1  0  1  0  0  0  0  0  0
  124.9170  101.7840  -43.5040 H   0  0  0  1  0  1  0  0  0  0  0  0
  123.7830  104.3910  -46.7280 H   0  0  0  1  0  1  0  0  0  0  0  0
  126.2400  108.8410  -44.5450 H   0  0  0  1  0  1  0  0  0  0  0  0
  125.8300  108.1910  -46.1690 H   0  0  0  1  0  1  0  0  0  0  0  0
  126.3380  107.0750  -44.8570 H   0  0  0  1  0  1  0  0  0  0  0  0
  124.1620  107.0120  -43.1120 H   0  0  0  1  0  1  0  0  0  0  0  0
  122.6000  108.9660  -44.4620 H   0  0  0  1  0  1  0  0  0  0  0  0
  123.6610  109.4650  -45.8220 H   0  0  0  1  0  1  0  0  0  0  0  0
  124.1160  109.8700  -44.1320 H   0  0  0  1  0  1  0  0  0  0  0  0
  1  5  1  0  0  0  0
  1  8  1  0  0  0  0
  1 10  1  0  0  0  0
  1 16  1  0  0  0  0
  2  3  2  0  0  0  0
  2  5  1  0  0  0  0
  2  7  1  0  0  0  0
  3  4  1  0  0  0  0
  3 11  1  0  0  0  0
  4  6  2  0  0  0  0
  4 12  1  0  0  0  0
  5 14  1  0  0  0  0
  5 15  1  0  0  0  0
  6  9  1  0  0  0  0
  6 17  1  0  0  0  0
  7  9  2  0  0  0  0
  7 18  1  0  0  0  0
  8 19  1  0  0  0  0
  8 20  1  0  0  0  0
  8 21  1  0  0  0  0
  9 13  1  0  0  0  0
 10 23  1  0  0  0  0
 10 24  1  0  0  0  0
 10 25  1  0  0  0  0
 11 22  1  0  0  0  0
M  END
$$$$
