4ago


 69 70  0  0  0  0  0  0  0  0999 V2000
  124.5520  100.4910  -49.3630 N   0  0  0  1  0  3  0  0  0  0  0  0
  123.9240  107.6530  -44.6570 N   0  3  0  1  0  4  0  0  0  0  0  0
  125.3460  111.5790  -43.6410 N   0  3  0  1  0  4  0  0  0  0  0  0
  124.4410  102.8420  -45.2570 C   0  0  0  1  0  3  0  0  0  0  0  0
  124.5030  101.8040  -46.2320 C   0  0  0  1  0  2  0  0  0  0  0  0
  124.6100  100.9470  -47.0580 C   0  0  0  1  0  2  0  0  0  0  0  0
  124.7490   99.8890  -48.0630 C   0  0  0  1  0  4  0  0  0  0  0  0
  123.8990  105.1710  -44.8720 C   0  0  0  1  0  3  0  0  0  0  0  0
  124.8080  102.6740  -43.9190 C   0  0  0  1  0  3  0  0  0  0  0  0
  123.4000  106.4840  -45.4060 C   0  0  0  1  0  4  0  0  0  0  0  0
  122.9640  108.8040  -44.7460 C   0  0  0  1  0  4  0  0  0  0  0  0
  124.0000  104.0880  -45.7400 C   0  0  0  1  0  3  0  0  0  0  0  0
  124.6970  103.7740  -43.0690 C   0  0  0  1  0  3  0  0  0  0  0  0
  124.2530  105.0330  -43.5070 C   0  0  0  1  0  3  0  0  0  0  0  0
  123.4910  109.9260  -43.8690 C   0  0  0  1  0  4  0  0  0  0  0  0
  124.8370  110.3580  -44.4300 C   0  0  0  1  0  4  0  0  0  0  0  0
  126.7590  111.4280  -43.0640 C   0  0  0  1  0  4  0  0  0  0  0  0
  127.5330  112.7100  -43.3100 C   0  0  0  1  0  4  0  0  0  0  0  0
  125.1000  112.9740  -44.2040 C   0  0  0  1  0  4  0  0  0  0  0  0
  123.6580  113.2500  -44.6130 C   0  0  0  1  0  4  0  0  0  0  0  0
  125.8320  109.1870  -44.3210 C   0  0  0  1  0  4  0  0  0  0  0  0
  125.2910  108.0280  -45.1360 C   0  0  0  1  0  4  0  0  0  0  0  0
  123.3000  100.7440  -49.8460 C   0  0  0  1  0  3  0  0  0  0  0  0
  122.2460  102.2230  -51.4890 C   0  0  0  1  0  4  0  0  0  0  0  0
  122.8270  103.1040  -52.6010 C   0  0  0  1  0  4  0  0  0  0  0  0
  121.5320  103.1400  -50.4870 C   0  0  0  1  0  4  0  0  0  0  0  0
  121.2900  101.1900  -52.0980 C   0  0  0  1  0  4  0  0  0  0  0  0
  124.1560  106.1120  -42.6860 O   0  0  0  1  0  2  0  0  0  0  0  0
  123.4110  101.5760  -50.9090 O   0  0  0  1  0  2  0  0  0  0  0  0
  122.2730  100.3160  -49.3410 O   0  0  0  1  0  1  0  0  0  0  0  0
  125.2210  103.5640  -41.0130 I   0  0  0  1  0  1  0  0  0  0  0  0
  123.9930   99.1090  -47.8930 H   0  0  0  1  0  1  0  0  0  0  0  0
  125.7530   99.4450  -48.0040 H   0  0  0  1  0  1  0  0  0  0  0  0
  125.3480  100.7270  -49.9200 H   0  0  0  1  0  1  0  0  0  0  0  0
  124.0010  107.3910  -43.6870 H   0  0  0  1  0  1  0  0  0  0  0  0
  124.4250  105.8660  -41.8080 H   0  0  0  1  0  1  0  0  0  0  0  0
  125.1680  101.7180  -43.5540 H   0  0  0  1  0  1  0  0  0  0  0  0
  122.3010  106.4920  -45.3460 H   0  0  0  1  0  1  0  0  0  0  0  0
  123.7100  106.5750  -46.4580 H   0  0  0  1  0  1  0  0  0  0  0  0
  124.7560  111.5640  -42.8250 H   0  0  0  1  0  1  0  0  0  0  0  0
  121.9710  108.4900  -44.3920 H   0  0  0  1  0  1  0  0  0  0  0  0
  122.8910  109.1490  -45.7880 H   0  0  0  1  0  1  0  0  0  0  0  0
  123.7390  104.2040  -46.7850 H   0  0  0  1  0  1  0  0  0  0  0  0
  123.6130  109.5680  -42.8360 H   0  0  0  1  0  1  0  0  0  0  0  0
  122.7890  110.7730  -43.8830 H   0  0  0  1  0  1  0  0  0  0  0  0
  124.7210  110.6340  -45.4890 H   0  0  0  1  0  1  0  0  0  0  0  0
  127.2710  110.5880  -43.5560 H   0  0  0  1  0  1  0  0  0  0  0  0
  126.6970  111.2370  -41.9820 H   0  0  0  1  0  1  0  0  0  0  0  0
  128.5490  112.6100  -42.8990 H   0  0  0  1  0  1  0  0  0  0  0  0
  127.0190  113.5490  -42.8180 H   0  0  0  1  0  1  0  0  0  0  0  0
  127.5930  112.9000  -44.3920 H   0  0  0  1  0  1  0  0  0  0  0  0
  125.7380  113.1020  -45.0920 H   0  0  0  1  0  1  0  0  0  0  0  0
  125.3860  113.7080  -43.4370 H   0  0  0  1  0  1  0  0  0  0  0  0
  123.5790  114.2750  -45.0050 H   0  0  0  1  0  1  0  0  0  0  0  0
  123.0020  113.1410  -43.7370 H   0  0  0  1  0  1  0  0  0  0  0  0
  123.3530  112.5350  -45.3910 H   0  0  0  1  0  1  0  0  0  0  0  0
  125.9380  108.8850  -43.2690 H   0  0  0  1  0  1  0  0  0  0  0  0
  126.8130  109.4940  -44.7140 H   0  0  0  1  0  1  0  0  0  0  0  0
  125.2370  108.3220  -46.1950 H   0  0  0  1  0  1  0  0  0  0  0  0
  125.9630  107.1640  -45.0290 H   0  0  0  1  0  1  0  0  0  0  0  0
  122.0120  103.6420  -53.1060 H   0  0  0  1  0  1  0  0  0  0  0  0
  123.3560  102.4740  -53.3300 H   0  0  0  1  0  1  0  0  0  0  0  0
  123.5290  103.8290  -52.1650 H   0  0  0  1  0  1  0  0  0  0  0  0
  120.6610  103.6050  -50.9720 H   0  0  0  1  0  1  0  0  0  0  0  0
  122.2250  103.9250  -50.1490 H   0  0  0  1  0  1  0  0  0  0  0  0
  121.1990  102.5490  -49.6220 H   0  0  0  1  0  1  0  0  0  0  0  0
  120.4190  101.7060  -52.5290 H   0  0  0  1  0  1  0  0  0  0  0  0
  120.9540  100.4950  -51.3150 H   0  0  0  1  0  1  0  0  0  0  0  0
  121.8120  100.6290  -52.8880 H   0  0  0  1  0  1  0  0  0  0  0  0
  1  7  1  0  0  0  0
  1 23  1  0  0  0  0
  1 34  1  0  0  0  0
  2 10  1  0  0  0  0
  2 11  1  0  0  0  0
  2 22  1  0  0  0  0
  2 35  1  0  0  0  0
  3 16  1  0  0  0  0
  3 17  1  0  0  0  0
  3 19  1  0  0  0  0
  3 40  1  0  0  0  0
  4  5  1  0  0  0  0
  4  9  2  0  0  0  0
  4 12  1  0  0  0  0
  5  6  3  0  0  0  0
  6  7  1  0  0  0  0
  7 32  1  0  0  0  0
  7 33  1  0  0  0  0
  8 10  1  0  0  0  0
  8 12  2  0  0  0  0
  8 14  1  0  0  0  0
  9 13  1  0  0  0  0
  9 37  1  0  0  0  0
 10 38  1  0  0  0  0
 10 39  1  0  0  0  0
 11 15  1  0  0  0  0
 11 41  1  0  0  0  0
 11 42  1  0  0  0  0
 12 43  1  0  0  0  0
 13 14  2  0  0  0  0
 13 31  1  0  0  0  0
 14 28  1  0  0  0  0
 15 16  1  0  0  0  0
 15 44  1  0  0  0  0
 15 45  1  0  0  0  0
 16 21  1  0  0  0  0
 16 46  1  0  0  0  0
 17 18  1  0  0  0  0
 17 47  1  0  0  0  0
 17 48  1  0  0  0  0
 18 49  1  0  0  0  0
 18 50  1  0  0  0  0
 18 51  1  0  0  0  0
 19 20  1  0  0  0  0
 19 52  1  0  0  0  0
 19 53  1  0  0  0  0
 20 54  1  0  0  0  0
 20 55  1  0  0  0  0
 20 56  1  0  0  0  0
 21 22  1  0  0  0  0
 21 57  1  0  0  0  0
 21 58  1  0  0  0  0
 22 59  1  0  0  0  0
 22 60  1  0  0  0  0
 23 29  1  0  0  0  0
 23 30  2  0  0  0  0
 24 25  1  0  0  0  0
 24 26  1  0  0  0  0
 24 27  1  0  0  0  0
 24 29  1  0  0  0  0
 25 61  1  0  0  0  0
 25 62  1  0  0  0  0
 25 63  1  0  0  0  0
 26 64  1  0  0  0  0
 26 65  1  0  0  0  0
 26 66  1  0  0  0  0
 27 67  1  0  0  0  0
 27 68  1  0  0  0  0
 27 69  1  0  0  0  0
 28 36  1  0  0  0  0
M  END
$$$$
