4agl


 25 25  0  0  0  0  0  0  0  0999 V2000
  124.3770  107.8470  -44.6710 N   0  3  0  1  0  4  0  0  0  0  0  0
  124.0410  105.3610  -44.8150 C   0  0  0  1  0  3  0  0  0  0  0  0
  124.3680  105.1510  -43.4700 C   0  0  0  1  0  3  0  0  0  0  0  0
  124.6850  103.8760  -43.0070 C   0  0  0  1  0  3  0  0  0  0  0  0
  123.6670  106.7390  -45.3390 C   0  0  0  1  0  4  0  0  0  0  0  0
  124.6740  102.7730  -43.8740 C   0  0  0  1  0  3  0  0  0  0  0  0
  124.0340  104.2490  -45.6830 C   0  0  0  1  0  3  0  0  0  0  0  0
  125.7860  107.9980  -45.0870 C   0  0  0  1  0  4  0  0  0  0  0  0
  124.3470  102.9640  -45.2180 C   0  0  0  1  0  3  0  0  0  0  0  0
  123.6420  109.1170  -44.7780 C   0  0  0  1  0  4  0  0  0  0  0  0
  124.4050  106.2300  -42.6310 O   0  0  0  1  0  2  0  0  0  0  0  0
  125.1380  103.6400  -40.9640 I   0  0  0  1  0  1  0  0  0  0  0  0
  124.3140  101.3570  -46.5570 I   0  0  0  1  0  1  0  0  0  0  0  0
  122.5860  106.8830  -45.1940 H   0  0  0  1  0  1  0  0  0  0  0  0
  123.9000  106.7760  -46.4140 H   0  0  0  1  0  1  0  0  0  0  0  0
  124.3990  107.6110  -43.6920 H   0  0  0  1  0  1  0  0  0  0  0  0
  124.9170  101.7840  -43.5040 H   0  0  0  1  0  1  0  0  0  0  0  0
  123.7830  104.3910  -46.7280 H   0  0  0  1  0  1  0  0  0  0  0  0
  126.2400  108.8410  -44.5450 H   0  0  0  1  0  1  0  0  0  0  0  0
  125.8300  108.1910  -46.1690 H   0  0  0  1  0  1  0  0  0  0  0  0
  126.3380  107.0750  -44.8570 H   0  0  0  1  0  1  0  0  0  0  0  0
  124.1620  107.0120  -43.1120 H   0  0  0  1  0  1  0  0  0  0  0  0
  122.6000  108.9660  -44.4620 H   0  0  0  1  0  1  0  0  0  0  0  0
  123.6610  109.4650  -45.8220 H   0  0  0  1  0  1  0  0  0  0  0  0
  124.1160  109.8700  -44.1320 H   0  0  0  1  0  1  0  0  0  0  0  0
  1  5  1  0  0  0  0
  1  8  1  0  0  0  0
  1 10  1  0  0  0  0
  1 16  1  0  0  0  0
  2  3  2  0  0  0  0
  2  5  1  0  0  0  0
  2  7  1  0  0  0  0
  3  4  1  0  0  0  0
  3 11  1  0  0  0  0
  4  6  2  0  0  0  0
  4 12  1  0  0  0  0
  5 14  1  0  0  0  0
  5 15  1  0  0  0  0
  6  9  1  0  0  0  0
  6 17  1  0  0  0  0
  7  9  2  0  0  0  0
  7 18  1  0  0  0  0
  8 19  1  0  0  0  0
  8 20  1  0  0  0  0
  8 21  1  0  0  0  0
  9 13  1  0  0  0  0
 10 23  1  0  0  0  0
 10 24  1  0  0  0  0
 10 25  1  0  0  0  0
 11 22  1  0  0  0  0
M  END
$$$$
4agl


 25 25  0  0  0  0  0  0  0  0999 V2000
  122.2399  107.0763  -45.1725 N   0  3  0  1  0  4  0  0  0  0  0  0
  124.0410  105.3610  -44.8150 C   0  0  0  1  0  3  0  0  0  0  0  0
  124.3680  105.1510  -43.4700 C   0  0  0  1  0  3  0  0  0  0  0  0
  124.6850  103.8760  -43.0070 C   0  0  0  1  0  3  0  0  0  0  0  0
  123.6670  106.7390  -45.3390 C   0  0  0  1  0  4  0  0  0  0  0  0
  124.6740  102.7730  -43.8740 C   0  0  0  1  0  3  0  0  0  0  0  0
  124.0340  104.2490  -45.6830 C   0  0  0  1  0  3  0  0  0  0  0  0
  121.8590  108.3843  -45.7428 C   0  0  0  1  0  4  0  0  0  0  0  0
  124.3470  102.9640  -45.2180 C   0  0  0  1  0  3  0  0  0  0  0  0
  121.3593  105.9996  -45.6519 C   0  0  0  1  0  4  0  0  0  0  0  0
  124.4050  106.2300  -42.6310 O   0  0  0  1  0  2  0  0  0  0  0  0
  125.1380  103.6400  -40.9640 I   0  0  0  1  0  1  0  0  0  0  0  0
  124.3140  101.3570  -46.5570 I   0  0  0  1  0  1  0  0  0  0  0  0
  123.9096  106.7793  -46.4113 H   0  0  0  1  0  1  0  0  0  0  0  0
  124.2657  107.4890  -44.8001 H   0  0  0  1  0  1  0  0  0  0  0  0
  122.0872  107.1498  -44.1796 H   0  0  0  1  0  1  0  0  0  0  0  0
  124.9170  101.7840  -43.5040 H   0  0  0  1  0  1  0  0  0  0  0  0
  123.7830  104.3910  -46.7280 H   0  0  0  1  0  1  0  0  0  0  0  0
  122.5270  109.1646  -45.3487 H   0  0  0  1  0  1  0  0  0  0  0  0
  120.8201  108.6163  -45.4658 H   0  0  0  1  0  1  0  0  0  0  0  0
  121.9462  108.3468  -46.8385 H   0  0  0  1  0  1  0  0  0  0  0  0
  124.1620  107.0120  -43.1120 H   0  0  0  1  0  1  0  0  0  0  0  0
  121.6832  105.0413  -45.2218 H   0  0  0  1  0  1  0  0  0  0  0  0
  121.4118  105.9443  -46.7499 H   0  0  0  1  0  1  0  0  0  0  0  0
  120.3245  106.2088  -45.3445 H   0  0  0  1  0  1  0  0  0  0  0  0
  1  5  1  0  0  0  0
  1  8  1  0  0  0  0
  1 10  1  0  0  0  0
  1 16  1  0  0  0  0
  2  3  2  0  0  0  0
  2  5  1  0  0  0  0
  2  7  1  0  0  0  0
  3  4  1  0  0  0  0
  3 11  1  0  0  0  0
  4  6  2  0  0  0  0
  4 12  1  0  0  0  0
  5 14  1  0  0  0  0
  5 15  1  0  0  0  0
  6  9  1  0  0  0  0
  6 17  1  0  0  0  0
  7  9  2  0  0  0  0
  7 18  1  0  0  0  0
  8 19  1  0  0  0  0
  8 20  1  0  0  0  0
  8 21  1  0  0  0  0
  9 13  1  0  0  0  0
 10 23  1  0  0  0  0
 10 24  1  0  0  0  0
 10 25  1  0  0  0  0
 11 22  1  0  0  0  0
M  END
> <ConfScore>
-0.844274

$$$$
4agl


 25 25  0  0  0  0  0  0  0  0999 V2000
  122.2399  107.0763  -45.1725 N   0  3  0  1  0  4  0  0  0  0  0  0
  124.0410  105.3610  -44.8150 C   0  0  0  1  0  3  0  0  0  0  0  0
  124.3680  105.1510  -43.4700 C   0  0  0  1  0  3  0  0  0  0  0  0
  124.6850  103.8760  -43.0070 C   0  0  0  1  0  3  0  0  0  0  0  0
  123.6670  106.7390  -45.3390 C   0  0  0  1  0  4  0  0  0  0  0  0
  124.6740  102.7730  -43.8740 C   0  0  0  1  0  3  0  0  0  0  0  0
  124.0340  104.2490  -45.6830 C   0  0  0  1  0  3  0  0  0  0  0  0
  121.8590  108.3843  -45.7428 C   0  0  0  1  0  4  0  0  0  0  0  0
  124.3470  102.9640  -45.2180 C   0  0  0  1  0  3  0  0  0  0  0  0
  121.3593  105.9996  -45.6519 C   0  0  0  1  0  4  0  0  0  0  0  0
  124.4050  106.2300  -42.6310 O   0  0  0  1  0  2  0  0  0  0  0  0
  125.1380  103.6400  -40.9640 I   0  0  0  1  0  1  0  0  0  0  0  0
  124.3140  101.3570  -46.5570 I   0  0  0  1  0  1  0  0  0  0  0  0
  123.9096  106.7793  -46.4113 H   0  0  0  1  0  1  0  0  0  0  0  0
  124.2657  107.4890  -44.8001 H   0  0  0  1  0  1  0  0  0  0  0  0
  122.0872  107.1498  -44.1796 H   0  0  0  1  0  1  0  0  0  0  0  0
  124.9170  101.7840  -43.5040 H   0  0  0  1  0  1  0  0  0  0  0  0
  123.7830  104.3910  -46.7280 H   0  0  0  1  0  1  0  0  0  0  0  0
  122.5270  109.1646  -45.3487 H   0  0  0  1  0  1  0  0  0  0  0  0
  120.8201  108.6163  -45.4658 H   0  0  0  1  0  1  0  0  0  0  0  0
  121.9462  108.3468  -46.8385 H   0  0  0  1  0  1  0  0  0  0  0  0
  124.1620  107.0120  -43.1120 H   0  0  0  1  0  1  0  0  0  0  0  0
  121.5334  105.8329  -46.7244 H   0  0  0  1  0  1  0  0  0  0  0  0
  120.3087  106.2865  -45.4920 H   0  0  0  1  0  1  0  0  0  0  0  0
  121.5753  105.0753  -45.0970 H   0  0  0  1  0  1  0  0  0  0  0  0
  1  5  1  0  0  0  0
  1  8  1  0  0  0  0
  1 10  1  0  0  0  0
  1 16  1  0  0  0  0
  2  3  2  0  0  0  0
  2  5  1  0  0  0  0
  2  7  1  0  0  0  0
  3  4  1  0  0  0  0
  3 11  1  0  0  0  0
  4  6  2  0  0  0  0
  4 12  1  0  0  0  0
  5 14  1  0  0  0  0
  5 15  1  0  0  0  0
  6  9  1  0  0  0  0
  6 17  1  0  0  0  0
  7  9  2  0  0  0  0
  7 18  1  0  0  0  0
  8 19  1  0  0  0  0
  8 20  1  0  0  0  0
  8 21  1  0  0  0  0
  9 13  1  0  0  0  0
 10 23  1  0  0  0  0
 10 24  1  0  0  0  0
 10 25  1  0  0  0  0
 11 22  1  0  0  0  0
M  END
> <ConfScore>
-0.844274

$$$$
4agl


 25 25  0  0  0  0  0  0  0  0999 V2000
  122.2399  107.0763  -45.1725 N   0  3  0  1  0  4  0  0  0  0  0  0
  124.0410  105.3610  -44.8150 C   0  0  0  1  0  3  0  0  0  0  0  0
  124.3680  105.1510  -43.4700 C   0  0  0  1  0  3  0  0  0  0  0  0
  124.6850  103.8760  -43.0070 C   0  0  0  1  0  3  0  0  0  0  0  0
  123.6670  106.7390  -45.3390 C   0  0  0  1  0  4  0  0  0  0  0  0
  124.6740  102.7730  -43.8740 C   0  0  0  1  0  3  0  0  0  0  0  0
  124.0340  104.2490  -45.6830 C   0  0  0  1  0  3  0  0  0  0  0  0
  121.8590  108.3843  -45.7428 C   0  0  0  1  0  4  0  0  0  0  0  0
  124.3470  102.9640  -45.2180 C   0  0  0  1  0  3  0  0  0  0  0  0
  121.3593  105.9996  -45.6519 C   0  0  0  1  0  4  0  0  0  0  0  0
  124.4050  106.2300  -42.6310 O   0  0  0  1  0  2  0  0  0  0  0  0
  125.1380  103.6400  -40.9640 I   0  0  0  1  0  1  0  0  0  0  0  0
  124.3140  101.3570  -46.5570 I   0  0  0  1  0  1  0  0  0  0  0  0
  123.9096  106.7793  -46.4113 H   0  0  0  1  0  1  0  0  0  0  0  0
  124.2657  107.4890  -44.8001 H   0  0  0  1  0  1  0  0  0  0  0  0
  122.0872  107.1498  -44.1796 H   0  0  0  1  0  1  0  0  0  0  0  0
  124.9170  101.7840  -43.5040 H   0  0  0  1  0  1  0  0  0  0  0  0
  123.7830  104.3910  -46.7280 H   0  0  0  1  0  1  0  0  0  0  0  0
  122.5270  109.1646  -45.3487 H   0  0  0  1  0  1  0  0  0  0  0  0
  120.8201  108.6163  -45.4658 H   0  0  0  1  0  1  0  0  0  0  0  0
  121.9462  108.3468  -46.8385 H   0  0  0  1  0  1  0  0  0  0  0  0
  124.1620  107.0120  -43.1120 H   0  0  0  1  0  1  0  0  0  0  0  0
  120.3098  106.2853  -45.4926 H   0  0  0  1  0  1  0  0  0  0  0  0
  121.5751  105.0744  -45.0962 H   0  0  0  1  0  1  0  0  0  0  0  0
  121.5354  105.8326  -46.7243 H   0  0  0  1  0  1  0  0  0  0  0  0
  1  5  1  0  0  0  0
  1  8  1  0  0  0  0
  1 10  1  0  0  0  0
  1 16  1  0  0  0  0
  2  3  2  0  0  0  0
  2  5  1  0  0  0  0
  2  7  1  0  0  0  0
  3  4  1  0  0  0  0
  3 11  1  0  0  0  0
  4  6  2  0  0  0  0
  4 12  1  0  0  0  0
  5 14  1  0  0  0  0
  5 15  1  0  0  0  0
  6  9  1  0  0  0  0
  6 17  1  0  0  0  0
  7  9  2  0  0  0  0
  7 18  1  0  0  0  0
  8 19  1  0  0  0  0
  8 20  1  0  0  0  0
  8 21  1  0  0  0  0
  9 13  1  0  0  0  0
 10 23  1  0  0  0  0
 10 24  1  0  0  0  0
 10 25  1  0  0  0  0
 11 22  1  0  0  0  0
M  END
> <ConfScore>
-0.844274

$$$$
4agl


 25 25  0  0  0  0  0  0  0  0999 V2000
  122.2399  107.0763  -45.1725 N   0  3  0  1  0  4  0  0  0  0  0  0
  124.0410  105.3610  -44.8150 C   0  0  0  1  0  3  0  0  0  0  0  0
  124.3680  105.1510  -43.4700 C   0  0  0  1  0  3  0  0  0  0  0  0
  124.6850  103.8760  -43.0070 C   0  0  0  1  0  3  0  0  0  0  0  0
  123.6670  106.7390  -45.3390 C   0  0  0  1  0  4  0  0  0  0  0  0
  124.6740  102.7730  -43.8740 C   0  0  0  1  0  3  0  0  0  0  0  0
  124.0340  104.2490  -45.6830 C   0  0  0  1  0  3  0  0  0  0  0  0
  121.8590  108.3843  -45.7428 C   0  0  0  1  0  4  0  0  0  0  0  0
  124.3470  102.9640  -45.2180 C   0  0  0  1  0  3  0  0  0  0  0  0
  121.3593  105.9996  -45.6519 C   0  0  0  1  0  4  0  0  0  0  0  0
  124.4050  106.2300  -42.6310 O   0  0  0  1  0  2  0  0  0  0  0  0
  125.1380  103.6400  -40.9640 I   0  0  0  1  0  1  0  0  0  0  0  0
  124.3140  101.3570  -46.5570 I   0  0  0  1  0  1  0  0  0  0  0  0
  123.9096  106.7793  -46.4113 H   0  0  0  1  0  1  0  0  0  0  0  0
  124.2657  107.4890  -44.8001 H   0  0  0  1  0  1  0  0  0  0  0  0
  122.0872  107.1498  -44.1796 H   0  0  0  1  0  1  0  0  0  0  0  0
  124.9170  101.7840  -43.5040 H   0  0  0  1  0  1  0  0  0  0  0  0
  123.7830  104.3910  -46.7280 H   0  0  0  1  0  1  0  0  0  0  0  0
  120.7853  108.5579  -45.5770 H   0  0  0  1  0  1  0  0  0  0  0  0
  122.0690  108.3884  -46.8225 H   0  0  0  1  0  1  0  0  0  0  0  0
  122.4385  109.1810  -45.2541 H   0  0  0  1  0  1  0  0  0  0  0  0
  124.1620  107.0120  -43.1120 H   0  0  0  1  0  1  0  0  0  0  0  0
  120.3098  106.2853  -45.4926 H   0  0  0  1  0  1  0  0  0  0  0  0
  121.5751  105.0744  -45.0962 H   0  0  0  1  0  1  0  0  0  0  0  0
  121.5354  105.8326  -46.7243 H   0  0  0  1  0  1  0  0  0  0  0  0
  1  5  1  0  0  0  0
  1  8  1  0  0  0  0
  1 10  1  0  0  0  0
  1 16  1  0  0  0  0
  2  3  2  0  0  0  0
  2  5  1  0  0  0  0
  2  7  1  0  0  0  0
  3  4  1  0  0  0  0
  3 11  1  0  0  0  0
  4  6  2  0  0  0  0
  4 12  1  0  0  0  0
  5 14  1  0  0  0  0
  5 15  1  0  0  0  0
  6  9  1  0  0  0  0
  6 17  1  0  0  0  0
  7  9  2  0  0  0  0
  7 18  1  0  0  0  0
  8 19  1  0  0  0  0
  8 20  1  0  0  0  0
  8 21  1  0  0  0  0
  9 13  1  0  0  0  0
 10 23  1  0  0  0  0
 10 24  1  0  0  0  0
 10 25  1  0  0  0  0
 11 22  1  0  0  0  0
M  END
> <ConfScore>
-0.844274

$$$$
4agl


 25 25  0  0  0  0  0  0  0  0999 V2000
  122.2399  107.0763  -45.1725 N   0  3  0  1  0  4  0  0  0  0  0  0
  124.0410  105.3610  -44.8150 C   0  0  0  1  0  3  0  0  0  0  0  0
  124.3680  105.1510  -43.4700 C   0  0  0  1  0  3  0  0  0  0  0  0
  124.6850  103.8760  -43.0070 C   0  0  0  1  0  3  0  0  0  0  0  0
  123.6670  106.7390  -45.3390 C   0  0  0  1  0  4  0  0  0  0  0  0
  124.6740  102.7730  -43.8740 C   0  0  0  1  0  3  0  0  0  0  0  0
  124.0340  104.2490  -45.6830 C   0  0  0  1  0  3  0  0  0  0  0  0
  121.9095  108.4780  -45.4999 C   0  0  0  1  0  4  0  0  0  0  0  0
  124.3470  102.9640  -45.2180 C   0  0  0  1  0  3  0  0  0  0  0  0
  121.3637  106.1331  -45.8846 C   0  0  0  1  0  4  0  0  0  0  0  0
  124.4050  106.2300  -42.6310 O   0  0  0  1  0  2  0  0  0  0  0  0
  125.1380  103.6400  -40.9640 I   0  0  0  1  0  1  0  0  0  0  0  0
  124.3140  101.3570  -46.5570 I   0  0  0  1  0  1  0  0  0  0  0  0
  123.9096  106.7793  -46.4113 H   0  0  0  1  0  1  0  0  0  0  0  0
  124.2657  107.4890  -44.8001 H   0  0  0  1  0  1  0  0  0  0  0  0
  122.0422  106.9650  -44.1911 H   0  0  0  1  0  1  0  0  0  0  0  0
  124.9170  101.7840  -43.5040 H   0  0  0  1  0  1  0  0  0  0  0  0
  123.7830  104.3910  -46.7280 H   0  0  0  1  0  1  0  0  0  0  0  0
  120.8324  108.6454  -45.3501 H   0  0  0  1  0  1  0  0  0  0  0  0
  122.1698  108.6804  -46.5493 H   0  0  0  1  0  1  0  0  0  0  0  0
  122.4795  109.1526  -44.8446 H   0  0  0  1  0  1  0  0  0  0  0  0
  124.1620  107.0120  -43.1120 H   0  0  0  1  0  1  0  0  0  0  0  0
  121.5847  106.1675  -46.9609 H   0  0  0  1  0  1  0  0  0  0  0  0
  120.3121  106.4120  -45.7179 H   0  0  0  1  0  1  0  0  0  0  0  0
  121.5372  105.1153  -45.5067 H   0  0  0  1  0  1  0  0  0  0  0  0
  1  5  1  0  0  0  0
  1  8  1  0  0  0  0
  1 10  1  0  0  0  0
  1 16  1  0  0  0  0
  2  3  2  0  0  0  0
  2  5  1  0  0  0  0
  2  7  1  0  0  0  0
  3  4  1  0  0  0  0
  3 11  1  0  0  0  0
  4  6  2  0  0  0  0
  4 12  1  0  0  0  0
  5 14  1  0  0  0  0
  5 15  1  0  0  0  0
  6  9  1  0  0  0  0
  6 17  1  0  0  0  0
  7  9  2  0  0  0  0
  7 18  1  0  0  0  0
  8 19  1  0  0  0  0
  8 20  1  0  0  0  0
  8 21  1  0  0  0  0
  9 13  1  0  0  0  0
 10 23  1  0  0  0  0
 10 24  1  0  0  0  0
 10 25  1  0  0  0  0
 11 22  1  0  0  0  0
M  END
> <ConfScore>
-0.844274

$$$$
4agl


 25 25  0  0  0  0  0  0  0  0999 V2000
  122.2229  107.0351  -45.2687 N   0  3  0  1  0  4  0  0  0  0  0  0
  124.0410  105.3610  -44.8150 C   0  0  0  1  0  3  0  0  0  0  0  0
  124.3680  105.1510  -43.4700 C   0  0  0  1  0  3  0  0  0  0  0  0
  124.6850  103.8760  -43.0070 C   0  0  0  1  0  3  0  0  0  0  0  0
  123.6670  106.7390  -45.3390 C   0  0  0  1  0  4  0  0  0  0  0  0
  124.6740  102.7730  -43.8740 C   0  0  0  1  0  3  0  0  0  0  0  0
  124.0340  104.2490  -45.6830 C   0  0  0  1  0  3  0  0  0  0  0  0
  121.8858  108.4528  -45.5085 C   0  0  0  1  0  4  0  0  0  0  0  0
  124.3470  102.9640  -45.2180 C   0  0  0  1  0  3  0  0  0  0  0  0
  121.4336  106.1383  -46.1274 C   0  0  0  1  0  4  0  0  0  0  0  0
  124.4050  106.2300  -42.6310 O   0  0  0  1  0  2  0  0  0  0  0  0
  125.1380  103.6400  -40.9640 I   0  0  0  1  0  1  0  0  0  0  0  0
  124.3140  101.3570  -46.5570 I   0  0  0  1  0  1  0  0  0  0  0  0
  123.9837  106.8074  -46.3903 H   0  0  0  1  0  1  0  0  0  0  0  0
  124.2049  107.4934  -44.7450 H   0  0  0  1  0  1  0  0  0  0  0  0
  121.9464  106.8393  -44.3201 H   0  0  0  1  0  1  0  0  0  0  0  0
  124.9170  101.7840  -43.5040 H   0  0  0  1  0  1  0  0  0  0  0  0
  123.7830  104.3910  -46.7280 H   0  0  0  1  0  1  0  0  0  0  0  0
  122.4814  109.0899  -44.8378 H   0  0  0  1  0  1  0  0  0  0  0  0
  120.8154  108.6132  -45.3122 H   0  0  0  1  0  1  0  0  0  0  0  0
  122.1092  108.7119  -46.5537 H   0  0  0  1  0  1  0  0  0  0  0  0
  124.1620  107.0120  -43.1120 H   0  0  0  1  0  1  0  0  0  0  0  0
  121.6213  106.3814  -47.1829 H   0  0  0  1  0  1  0  0  0  0  0  0
  120.3631  106.2676  -45.9069 H   0  0  0  1  0  1  0  0  0  0  0  0
  121.7245  105.0958  -45.9335 H   0  0  0  1  0  1  0  0  0  0  0  0
  1  5  1  0  0  0  0
  1  8  1  0  0  0  0
  1 10  1  0  0  0  0
  1 16  1  0  0  0  0
  2  3  2  0  0  0  0
  2  5  1  0  0  0  0
  2  7  1  0  0  0  0
  3  4  1  0  0  0  0
  3 11  1  0  0  0  0
  4  6  2  0  0  0  0
  4 12  1  0  0  0  0
  5 14  1  0  0  0  0
  5 15  1  0  0  0  0
  6  9  1  0  0  0  0
  6 17  1  0  0  0  0
  7  9  2  0  0  0  0
  7 18  1  0  0  0  0
  8 19  1  0  0  0  0
  8 20  1  0  0  0  0
  8 21  1  0  0  0  0
  9 13  1  0  0  0  0
 10 23  1  0  0  0  0
 10 24  1  0  0  0  0
 10 25  1  0  0  0  0
 11 22  1  0  0  0  0
M  END
> <ConfScore>
-0.844274

$$$$
4agl


 25 25  0  0  0  0  0  0  0  0999 V2000
  122.2399  107.0763  -45.1725 N   0  3  0  1  0  4  0  0  0  0  0  0
  124.0410  105.3610  -44.8150 C   0  0  0  1  0  3  0  0  0  0  0  0
  124.3680  105.1510  -43.4700 C   0  0  0  1  0  3  0  0  0  0  0  0
  124.6850  103.8760  -43.0070 C   0  0  0  1  0  3  0  0  0  0  0  0
  123.6670  106.7390  -45.3390 C   0  0  0  1  0  4  0  0  0  0  0  0
  124.6740  102.7730  -43.8740 C   0  0  0  1  0  3  0  0  0  0  0  0
  124.0340  104.2490  -45.6830 C   0  0  0  1  0  3  0  0  0  0  0  0
  121.8590  108.3843  -45.7428 C   0  0  0  1  0  4  0  0  0  0  0  0
  124.3470  102.9640  -45.2180 C   0  0  0  1  0  3  0  0  0  0  0  0
  121.3593  105.9996  -45.6519 C   0  0  0  1  0  4  0  0  0  0  0  0
  124.4050  106.2300  -42.6310 O   0  0  0  1  0  2  0  0  0  0  0  0
  125.1380  103.6400  -40.9640 I   0  0  0  1  0  1  0  0  0  0  0  0
  124.3140  101.3570  -46.5570 I   0  0  0  1  0  1  0  0  0  0  0  0
  123.9096  106.7793  -46.4113 H   0  0  0  1  0  1  0  0  0  0  0  0
  124.2657  107.4890  -44.8001 H   0  0  0  1  0  1  0  0  0  0  0  0
  122.0872  107.1498  -44.1796 H   0  0  0  1  0  1  0  0  0  0  0  0
  124.9170  101.7840  -43.5040 H   0  0  0  1  0  1  0  0  0  0  0  0
  123.7830  104.3910  -46.7280 H   0  0  0  1  0  1  0  0  0  0  0  0
  122.0854  108.3947  -46.8194 H   0  0  0  1  0  1  0  0  0  0  0  0
  122.4260  109.1821  -45.2408 H   0  0  0  1  0  1  0  0  0  0  0  0
  120.7822  108.5507  -45.5934 H   0  0  0  1  0  1  0  0  0  0  0  0
  124.1620  107.0120  -43.1120 H   0  0  0  1  0  1  0  0  0  0  0  0
  121.4098  105.9448  -46.7487 H   0  0  0  1  0  1  0  0  0  0  0  0
  120.3235  106.2082  -45.3433 H   0  0  0  1  0  1  0  0  0  0  0  0
  121.6842  105.0416  -45.2211 H   0  0  0  1  0  1  0  0  0  0  0  0
  1  5  1  0  0  0  0
  1  8  1  0  0  0  0
  1 10  1  0  0  0  0
  1 16  1  0  0  0  0
  2  3  2  0  0  0  0
  2  5  1  0  0  0  0
  2  7  1  0  0  0  0
  3  4  1  0  0  0  0
  3 11  1  0  0  0  0
  4  6  2  0  0  0  0
  4 12  1  0  0  0  0
  5 14  1  0  0  0  0
  5 15  1  0  0  0  0
  6  9  1  0  0  0  0
  6 17  1  0  0  0  0
  7  9  2  0  0  0  0
  7 18  1  0  0  0  0
  8 19  1  0  0  0  0
  8 20  1  0  0  0  0
  8 21  1  0  0  0  0
  9 13  1  0  0  0  0
 10 23  1  0  0  0  0
 10 24  1  0  0  0  0
 10 25  1  0  0  0  0
 11 22  1  0  0  0  0
M  END
> <ConfScore>
-0.844274

$$$$
4agl


 25 25  0  0  0  0  0  0  0  0999 V2000
  122.2399  107.0763  -45.1725 N   0  3  0  1  0  4  0  0  0  0  0  0
  124.0410  105.3610  -44.8150 C   0  0  0  1  0  3  0  0  0  0  0  0
  124.3680  105.1510  -43.4700 C   0  0  0  1  0  3  0  0  0  0  0  0
  124.6850  103.8760  -43.0070 C   0  0  0  1  0  3  0  0  0  0  0  0
  123.6670  106.7390  -45.3390 C   0  0  0  1  0  4  0  0  0  0  0  0
  124.6740  102.7730  -43.8740 C   0  0  0  1  0  3  0  0  0  0  0  0
  124.0340  104.2490  -45.6830 C   0  0  0  1  0  3  0  0  0  0  0  0
  121.7647  107.0140  -43.7756 C   0  0  0  1  0  4  0  0  0  0  0  0
  124.3470  102.9640  -45.2180 C   0  0  0  1  0  3  0  0  0  0  0  0
  121.8998  108.3612  -45.8032 C   0  0  0  1  0  4  0  0  0  0  0  0
  124.4050  106.2300  -42.6310 O   0  0  0  1  0  2  0  0  0  0  0  0
  125.1380  103.6400  -40.9640 I   0  0  0  1  0  1  0  0  0  0  0  0
  124.3140  101.3570  -46.5570 I   0  0  0  1  0  1  0  0  0  0  0  0
  123.9096  106.7793  -46.4113 H   0  0  0  1  0  1  0  0  0  0  0  0
  124.2657  107.4890  -44.8001 H   0  0  0  1  0  1  0  0  0  0  0  0
  121.7281  106.3677  -45.6731 H   0  0  0  1  0  1  0  0  0  0  0  0
  124.9170  101.7840  -43.5040 H   0  0  0  1  0  1  0  0  0  0  0  0
  123.7830  104.3910  -46.7280 H   0  0  0  1  0  1  0  0  0  0  0  0
  122.0211  106.0348  -43.3443 H   0  0  0  1  0  1  0  0  0  0  0  0
  120.6734  107.1504  -43.7533 H   0  0  0  1  0  1  0  0  0  0  0  0
  122.2452  107.8100  -43.1881 H   0  0  0  1  0  1  0  0  0  0  0  0
  124.1620  107.0120  -43.1120 H   0  0  0  1  0  1  0  0  0  0  0  0
  122.2838  108.3779  -46.8330 H   0  0  0  1  0  1  0  0  0  0  0  0
  122.3546  109.1832  -45.2296 H   0  0  0  1  0  1  0  0  0  0  0  0
  120.8072  108.4846  -45.8169 H   0  0  0  1  0  1  0  0  0  0  0  0
  1  5  1  0  0  0  0
  1  8  1  0  0  0  0
  1 10  1  0  0  0  0
  1 16  1  0  0  0  0
  2  3  2  0  0  0  0
  2  5  1  0  0  0  0
  2  7  1  0  0  0  0
  3  4  1  0  0  0  0
  3 11  1  0  0  0  0
  4  6  2  0  0  0  0
  4 12  1  0  0  0  0
  5 14  1  0  0  0  0
  5 15  1  0  0  0  0
  6  9  1  0  0  0  0
  6 17  1  0  0  0  0
  7  9  2  0  0  0  0
  7 18  1  0  0  0  0
  8 19  1  0  0  0  0
  8 20  1  0  0  0  0
  8 21  1  0  0  0  0
  9 13  1  0  0  0  0
 10 23  1  0  0  0  0
 10 24  1  0  0  0  0
 10 25  1  0  0  0  0
 11 22  1  0  0  0  0
M  END
> <ConfScore>
-0.839054

$$$$
4agl


 25 25  0  0  0  0  0  0  0  0999 V2000
  122.2314  107.0578  -45.2150 N   0  3  0  1  0  4  0  0  0  0  0  0
  124.0410  105.3610  -44.8150 C   0  0  0  1  0  3  0  0  0  0  0  0
  124.3680  105.1510  -43.4700 C   0  0  0  1  0  3  0  0  0  0  0  0
  124.6850  103.8760  -43.0070 C   0  0  0  1  0  3  0  0  0  0  0  0
  123.6670  106.7390  -45.3390 C   0  0  0  1  0  4  0  0  0  0  0  0
  124.6740  102.7730  -43.8740 C   0  0  0  1  0  3  0  0  0  0  0  0
  124.0340  104.2490  -45.6830 C   0  0  0  1  0  3  0  0  0  0  0  0
  121.7221  107.0162  -43.8293 C   0  0  0  1  0  4  0  0  0  0  0  0
  124.3470  102.9640  -45.2180 C   0  0  0  1  0  3  0  0  0  0  0  0
  121.8884  108.3246  -45.8799 C   0  0  0  1  0  4  0  0  0  0  0  0
  124.4050  106.2300  -42.6310 O   0  0  0  1  0  2  0  0  0  0  0  0
  125.1380  103.6400  -40.9640 I   0  0  0  1  0  1  0  0  0  0  0  0
  124.3140  101.3570  -46.5570 I   0  0  0  1  0  1  0  0  0  0  0  0
  123.9428  106.7916  -46.4027 H   0  0  0  1  0  1  0  0  0  0  0  0
  124.2392  107.4913  -44.7751 H   0  0  0  1  0  1  0  0  0  0  0  0
  121.7428  106.3317  -45.7136 H   0  0  0  1  0  1  0  0  0  0  0  0
  124.9170  101.7840  -43.5040 H   0  0  0  1  0  1  0  0  0  0  0  0
  123.7830  104.3910  -46.7280 H   0  0  0  1  0  1  0  0  0  0  0  0
  122.1766  107.8316  -43.2470 H   0  0  0  1  0  1  0  0  0  0  0  0
  121.9815  106.0499  -43.3723 H   0  0  0  1  0  1  0  0  0  0  0  0
  120.6289  107.1364  -43.8359 H   0  0  0  1  0  1  0  0  0  0  0  0
  124.1620  107.0120  -43.1120 H   0  0  0  1  0  1  0  0  0  0  0  0
  122.2980  108.3266  -46.9000 H   0  0  0  1  0  1  0  0  0  0  0  0
  122.3165  109.1646  -45.3121 H   0  0  0  1  0  1  0  0  0  0  0  0
  120.7949  108.4311  -45.9233 H   0  0  0  1  0  1  0  0  0  0  0  0
  1  5  1  0  0  0  0
  1  8  1  0  0  0  0
  1 10  1  0  0  0  0
  1 16  1  0  0  0  0
  2  3  2  0  0  0  0
  2  5  1  0  0  0  0
  2  7  1  0  0  0  0
  3  4  1  0  0  0  0
  3 11  1  0  0  0  0
  4  6  2  0  0  0  0
  4 12  1  0  0  0  0
  5 14  1  0  0  0  0
  5 15  1  0  0  0  0
  6  9  1  0  0  0  0
  6 17  1  0  0  0  0
  7  9  2  0  0  0  0
  7 18  1  0  0  0  0
  8 19  1  0  0  0  0
  8 20  1  0  0  0  0
  8 21  1  0  0  0  0
  9 13  1  0  0  0  0
 10 23  1  0  0  0  0
 10 24  1  0  0  0  0
 10 25  1  0  0  0  0
 11 22  1  0  0  0  0
M  END
> <ConfScore>
-0.839054

$$$$
4agl


 25 25  0  0  0  0  0  0  0  0999 V2000
  122.2399  107.0763  -45.1725 N   0  3  0  1  0  4  0  0  0  0  0  0
  124.0410  105.3610  -44.8150 C   0  0  0  1  0  3  0  0  0  0  0  0
  124.3680  105.1510  -43.4700 C   0  0  0  1  0  3  0  0  0  0  0  0
  124.6850  103.8760  -43.0070 C   0  0  0  1  0  3  0  0  0  0  0  0
  123.6670  106.7390  -45.3390 C   0  0  0  1  0  4  0  0  0  0  0  0
  124.6740  102.7730  -43.8740 C   0  0  0  1  0  3  0  0  0  0  0  0
  124.0340  104.2490  -45.6830 C   0  0  0  1  0  3  0  0  0  0  0  0
  121.7516  106.9624  -43.7834 C   0  0  0  1  0  4  0  0  0  0  0  0
  124.3470  102.9640  -45.2180 C   0  0  0  1  0  3  0  0  0  0  0  0
  121.9112  108.3862  -45.7561 C   0  0  0  1  0  4  0  0  0  0  0  0
  124.4050  106.2300  -42.6310 O   0  0  0  1  0  2  0  0  0  0  0  0
  125.1380  103.6400  -40.9640 I   0  0  0  1  0  1  0  0  0  0  0  0
  124.3140  101.3570  -46.5570 I   0  0  0  1  0  1  0  0  0  0  0  0
  123.9096  106.7793  -46.4113 H   0  0  0  1  0  1  0  0  0  0  0  0
  124.2657  107.4890  -44.8001 H   0  0  0  1  0  1  0  0  0  0  0  0
  121.7297  106.3900  -45.7047 H   0  0  0  1  0  1  0  0  0  0  0  0
  124.9170  101.7840  -43.5040 H   0  0  0  1  0  1  0  0  0  0  0  0
  123.7830  104.3910  -46.7280 H   0  0  0  1  0  1  0  0  0  0  0  0
  121.9998  105.9661  -43.3880 H   0  0  0  1  0  1  0  0  0  0  0  0
  120.6608  107.1029  -43.7657 H   0  0  0  1  0  1  0  0  0  0  0  0
  122.2301  107.7328  -43.1613 H   0  0  0  1  0  1  0  0  0  0  0  0
  124.1620  107.0120  -43.1120 H   0  0  0  1  0  1  0  0  0  0  0  0
  120.8384  108.5877  -45.6253 H   0  0  0  1  0  1  0  0  0  0  0  0
  122.1543  108.3810  -46.8295 H   0  0  0  1  0  1  0  0  0  0  0  0
  122.4958  109.1690  -45.2516 H   0  0  0  1  0  1  0  0  0  0  0  0
  1  5  1  0  0  0  0
  1  8  1  0  0  0  0
  1 10  1  0  0  0  0
  1 16  1  0  0  0  0
  2  3  2  0  0  0  0
  2  5  1  0  0  0  0
  2  7  1  0  0  0  0
  3  4  1  0  0  0  0
  3 11  1  0  0  0  0
  4  6  2  0  0  0  0
  4 12  1  0  0  0  0
  5 14  1  0  0  0  0
  5 15  1  0  0  0  0
  6  9  1  0  0  0  0
  6 17  1  0  0  0  0
  7  9  2  0  0  0  0
  7 18  1  0  0  0  0
  8 19  1  0  0  0  0
  8 20  1  0  0  0  0
  8 21  1  0  0  0  0
  9 13  1  0  0  0  0
 10 23  1  0  0  0  0
 10 24  1  0  0  0  0
 10 25  1  0  0  0  0
 11 22  1  0  0  0  0
M  END
> <ConfScore>
-0.839054

$$$$
4agl


 25 25  0  0  0  0  0  0  0  0999 V2000
  122.2399  107.0763  -45.1725 N   0  3  0  1  0  4  0  0  0  0  0  0
  124.0410  105.3610  -44.8150 C   0  0  0  1  0  3  0  0  0  0  0  0
  124.3680  105.1510  -43.4700 C   0  0  0  1  0  3  0  0  0  0  0  0
  124.6850  103.8760  -43.0070 C   0  0  0  1  0  3  0  0  0  0  0  0
  123.6670  106.7390  -45.3390 C   0  0  0  1  0  4  0  0  0  0  0  0
  124.6740  102.7730  -43.8740 C   0  0  0  1  0  3  0  0  0  0  0  0
  124.0340  104.2490  -45.6830 C   0  0  0  1  0  3  0  0  0  0  0  0
  121.7516  106.9624  -43.7834 C   0  0  0  1  0  4  0  0  0  0  0  0
  124.3470  102.9640  -45.2180 C   0  0  0  1  0  3  0  0  0  0  0  0
  121.9112  108.3862  -45.7561 C   0  0  0  1  0  4  0  0  0  0  0  0
  124.4050  106.2300  -42.6310 O   0  0  0  1  0  2  0  0  0  0  0  0
  125.1380  103.6400  -40.9640 I   0  0  0  1  0  1  0  0  0  0  0  0
  124.3140  101.3570  -46.5570 I   0  0  0  1  0  1  0  0  0  0  0  0
  123.9096  106.7793  -46.4113 H   0  0  0  1  0  1  0  0  0  0  0  0
  124.2657  107.4890  -44.8001 H   0  0  0  1  0  1  0  0  0  0  0  0
  121.7297  106.3900  -45.7047 H   0  0  0  1  0  1  0  0  0  0  0  0
  124.9170  101.7840  -43.5040 H   0  0  0  1  0  1  0  0  0  0  0  0
  123.7830  104.3910  -46.7280 H   0  0  0  1  0  1  0  0  0  0  0  0
  120.6849  107.2295  -43.7467 H   0  0  0  1  0  1  0  0  0  0  0  0
  122.3231  107.6444  -43.1369 H   0  0  0  1  0  1  0  0  0  0  0  0
  121.8824  105.9287  -43.4315 H   0  0  0  1  0  1  0  0  0  0  0  0
  124.1620  107.0120  -43.1120 H   0  0  0  1  0  1  0  0  0  0  0  0
  120.8384  108.5877  -45.6253 H   0  0  0  1  0  1  0  0  0  0  0  0
  122.1543  108.3810  -46.8295 H   0  0  0  1  0  1  0  0  0  0  0  0
  122.4958  109.1690  -45.2516 H   0  0  0  1  0  1  0  0  0  0  0  0
  1  5  1  0  0  0  0
  1  8  1  0  0  0  0
  1 10  1  0  0  0  0
  1 16  1  0  0  0  0
  2  3  2  0  0  0  0
  2  5  1  0  0  0  0
  2  7  1  0  0  0  0
  3  4  1  0  0  0  0
  3 11  1  0  0  0  0
  4  6  2  0  0  0  0
  4 12  1  0  0  0  0
  5 14  1  0  0  0  0
  5 15  1  0  0  0  0
  6  9  1  0  0  0  0
  6 17  1  0  0  0  0
  7  9  2  0  0  0  0
  7 18  1  0  0  0  0
  8 19  1  0  0  0  0
  8 20  1  0  0  0  0
  8 21  1  0  0  0  0
  9 13  1  0  0  0  0
 10 23  1  0  0  0  0
 10 24  1  0  0  0  0
 10 25  1  0  0  0  0
 11 22  1  0  0  0  0
M  END
> <ConfScore>
-0.839054

$$$$
4agl


 25 25  0  0  0  0  0  0  0  0999 V2000
  122.2399  107.0763  -45.1725 N   0  3  0  1  0  4  0  0  0  0  0  0
  124.0410  105.3610  -44.8150 C   0  0  0  1  0  3  0  0  0  0  0  0
  124.3680  105.1510  -43.4700 C   0  0  0  1  0  3  0  0  0  0  0  0
  124.6850  103.8760  -43.0070 C   0  0  0  1  0  3  0  0  0  0  0  0
  123.6670  106.7390  -45.3390 C   0  0  0  1  0  4  0  0  0  0  0  0
  124.6740  102.7730  -43.8740 C   0  0  0  1  0  3  0  0  0  0  0  0
  124.0340  104.2490  -45.6830 C   0  0  0  1  0  3  0  0  0  0  0  0
  121.7516  106.9624  -43.7834 C   0  0  0  1  0  4  0  0  0  0  0  0
  124.3470  102.9640  -45.2180 C   0  0  0  1  0  3  0  0  0  0  0  0
  121.9112  108.3862  -45.7561 C   0  0  0  1  0  4  0  0  0  0  0  0
  124.4050  106.2300  -42.6310 O   0  0  0  1  0  2  0  0  0  0  0  0
  125.1380  103.6400  -40.9640 I   0  0  0  1  0  1  0  0  0  0  0  0
  124.3140  101.3570  -46.5570 I   0  0  0  1  0  1  0  0  0  0  0  0
  123.9096  106.7793  -46.4113 H   0  0  0  1  0  1  0  0  0  0  0  0
  124.2657  107.4890  -44.8001 H   0  0  0  1  0  1  0  0  0  0  0  0
  121.7297  106.3900  -45.7047 H   0  0  0  1  0  1  0  0  0  0  0  0
  124.9170  101.7840  -43.5040 H   0  0  0  1  0  1  0  0  0  0  0  0
  123.7830  104.3910  -46.7280 H   0  0  0  1  0  1  0  0  0  0  0  0
  120.6849  107.2295  -43.7467 H   0  0  0  1  0  1  0  0  0  0  0  0
  122.3231  107.6444  -43.1369 H   0  0  0  1  0  1  0  0  0  0  0  0
  121.8824  105.9287  -43.4315 H   0  0  0  1  0  1  0  0  0  0  0  0
  124.1620  107.0120  -43.1120 H   0  0  0  1  0  1  0  0  0  0  0  0
  122.3771  109.1821  -45.1579 H   0  0  0  1  0  1  0  0  0  0  0  0
  120.8190  108.5226  -45.7594 H   0  0  0  1  0  1  0  0  0  0  0  0
  122.2895  108.4330  -46.7874 H   0  0  0  1  0  1  0  0  0  0  0  0
  1  5  1  0  0  0  0
  1  8  1  0  0  0  0
  1 10  1  0  0  0  0
  1 16  1  0  0  0  0
  2  3  2  0  0  0  0
  2  5  1  0  0  0  0
  2  7  1  0  0  0  0
  3  4  1  0  0  0  0
  3 11  1  0  0  0  0
  4  6  2  0  0  0  0
  4 12  1  0  0  0  0
  5 14  1  0  0  0  0
  5 15  1  0  0  0  0
  6  9  1  0  0  0  0
  6 17  1  0  0  0  0
  7  9  2  0  0  0  0
  7 18  1  0  0  0  0
  8 19  1  0  0  0  0
  8 20  1  0  0  0  0
  8 21  1  0  0  0  0
  9 13  1  0  0  0  0
 10 23  1  0  0  0  0
 10 24  1  0  0  0  0
 10 25  1  0  0  0  0
 11 22  1  0  0  0  0
M  END
> <ConfScore>
-0.839054

$$$$
4agl


 25 25  0  0  0  0  0  0  0  0999 V2000
  124.7342  107.7472  -45.1885 N   0  3  0  1  0  4  0  0  0  0  0  0
  124.0410  105.3610  -44.8150 C   0  0  0  1  0  3  0  0  0  0  0  0
  124.3680  105.1510  -43.4700 C   0  0  0  1  0  3  0  0  0  0  0  0
  124.6850  103.8760  -43.0070 C   0  0  0  1  0  3  0  0  0  0  0  0
  123.6670  106.7390  -45.3390 C   0  0  0  1  0  4  0  0  0  0  0  0
  124.6740  102.7730  -43.8740 C   0  0  0  1  0  3  0  0  0  0  0  0
  124.0340  104.2490  -45.6830 C   0  0  0  1  0  3  0  0  0  0  0  0
  125.9945  107.3981  -45.8746 C   0  0  0  1  0  4  0  0  0  0  0  0
  124.3470  102.9640  -45.2180 C   0  0  0  1  0  3  0  0  0  0  0  0
  124.2743  109.0959  -45.5545 C   0  0  0  1  0  4  0  0  0  0  0  0
  124.4050  106.2300  -42.6310 O   0  0  0  1  0  2  0  0  0  0  0  0
  125.1380  103.6400  -40.9640 I   0  0  0  1  0  1  0  0  0  0  0  0
  124.3140  101.3570  -46.5570 I   0  0  0  1  0  1  0  0  0  0  0  0
  122.7800  107.0891  -44.7904 H   0  0  0  1  0  1  0  0  0  0  0  0
  123.4236  106.6488  -46.4085 H   0  0  0  1  0  1  0  0  0  0  0  0
  124.9507  107.7760  -44.2051 H   0  0  0  1  0  1  0  0  0  0  0  0
  124.9170  101.7840  -43.5040 H   0  0  0  1  0  1  0  0  0  0  0  0
  123.7830  104.3910  -46.7280 H   0  0  0  1  0  1  0  0  0  0  0  0
  126.3153  106.3927  -45.5632 H   0  0  0  1  0  1  0  0  0  0  0  0
  126.7715  108.1299  -45.6087 H   0  0  0  1  0  1  0  0  0  0  0  0
  125.8363  107.4112  -46.9629 H   0  0  0  1  0  1  0  0  0  0  0  0
  124.1620  107.0120  -43.1120 H   0  0  0  1  0  1  0  0  0  0  0  0
  123.3274  109.3132  -45.0401 H   0  0  0  1  0  1  0  0  0  0  0  0
  124.1197  109.1479  -46.6430 H   0  0  0  1  0  1  0  0  0  0  0  0
  125.0320  109.8347  -45.2562 H   0  0  0  1  0  1  0  0  0  0  0  0
  1  5  1  0  0  0  0
  1  8  1  0  0  0  0
  1 10  1  0  0  0  0
  1 16  1  0  0  0  0
  2  3  2  0  0  0  0
  2  5  1  0  0  0  0
  2  7  1  0  0  0  0
  3  4  1  0  0  0  0
  3 11  1  0  0  0  0
  4  6  2  0  0  0  0
  4 12  1  0  0  0  0
  5 14  1  0  0  0  0
  5 15  1  0  0  0  0
  6  9  1  0  0  0  0
  6 17  1  0  0  0  0
  7  9  2  0  0  0  0
  7 18  1  0  0  0  0
  8 19  1  0  0  0  0
  8 20  1  0  0  0  0
  8 21  1  0  0  0  0
  9 13  1  0  0  0  0
 10 23  1  0  0  0  0
 10 24  1  0  0  0  0
 10 25  1  0  0  0  0
 11 22  1  0  0  0  0
M  END
> <ConfScore>
-0.781038

$$$$
4agl


 25 25  0  0  0  0  0  0  0  0999 V2000
  122.3010  106.8194  -45.8917 N   0  3  0  1  0  4  0  0  0  0  0  0
  124.0410  105.3610  -44.8150 C   0  0  0  1  0  3  0  0  0  0  0  0
  124.3680  105.1510  -43.4700 C   0  0  0  1  0  3  0  0  0  0  0  0
  124.6850  103.8760  -43.0070 C   0  0  0  1  0  3  0  0  0  0  0  0
  123.6670  106.7390  -45.3390 C   0  0  0  1  0  4  0  0  0  0  0  0
  124.6740  102.7730  -43.8740 C   0  0  0  1  0  3  0  0  0  0  0  0
  124.0340  104.2490  -45.6830 C   0  0  0  1  0  3  0  0  0  0  0  0
  121.2389  106.4674  -44.9277 C   0  0  0  1  0  4  0  0  0  0  0  0
  124.3470  102.9640  -45.2180 C   0  0  0  1  0  3  0  0  0  0  0  0
  122.0411  108.1177  -46.5332 C   0  0  0  1  0  4  0  0  0  0  0  0
  124.4050  106.2300  -42.6310 O   0  0  0  1  0  2  0  0  0  0  0  0
  125.1380  103.6400  -40.9640 I   0  0  0  1  0  1  0  0  0  0  0  0
  124.3140  101.3570  -46.5570 I   0  0  0  1  0  1  0  0  0  0  0  0
  124.3783  107.0126  -46.1325 H   0  0  0  1  0  1  0  0  0  0  0  0
  123.7487  107.4588  -44.5104 H   0  0  0  1  0  1  0  0  0  0  0  0
  122.2565  106.1261  -46.6210 H   0  0  0  1  0  1  0  0  0  0  0  0
  124.9170  101.7840  -43.5040 H   0  0  0  1  0  1  0  0  0  0  0  0
  123.7830  104.3910  -46.7280 H   0  0  0  1  0  1  0  0  0  0  0  0
  121.4582  105.4853  -44.4828 H   0  0  0  1  0  1  0  0  0  0  0  0
  120.2706  106.4267  -45.4479 H   0  0  0  1  0  1  0  0  0  0  0  0
  121.1963  107.2276  -44.1340 H   0  0  0  1  0  1  0  0  0  0  0  0
  124.1620  107.0120  -43.1120 H   0  0  0  1  0  1  0  0  0  0  0  0
  122.8590  108.3539  -47.2286 H   0  0  0  1  0  1  0  0  0  0  0  0
  121.9779  108.9013  -45.7629 H   0  0  0  1  0  1  0  0  0  0  0  0
  121.0918  108.0696  -47.0858 H   0  0  0  1  0  1  0  0  0  0  0  0
  1  5  1  0  0  0  0
  1  8  1  0  0  0  0
  1 10  1  0  0  0  0
  1 16  1  0  0  0  0
  2  3  2  0  0  0  0
  2  5  1  0  0  0  0
  2  7  1  0  0  0  0
  3  4  1  0  0  0  0
  3 11  1  0  0  0  0
  4  6  2  0  0  0  0
  4 12  1  0  0  0  0
  5 14  1  0  0  0  0
  5 15  1  0  0  0  0
  6  9  1  0  0  0  0
  6 17  1  0  0  0  0
  7  9  2  0  0  0  0
  7 18  1  0  0  0  0
  8 19  1  0  0  0  0
  8 20  1  0  0  0  0
  8 21  1  0  0  0  0
  9 13  1  0  0  0  0
 10 23  1  0  0  0  0
 10 24  1  0  0  0  0
 10 25  1  0  0  0  0
 11 22  1  0  0  0  0
M  END
> <ConfScore>
-0.781038

$$$$
4agl


 25 25  0  0  0  0  0  0  0  0999 V2000
  124.7342  107.7472  -45.1885 N   0  3  0  1  0  4  0  0  0  0  0  0
  124.0410  105.3610  -44.8150 C   0  0  0  1  0  3  0  0  0  0  0  0
  124.3680  105.1510  -43.4700 C   0  0  0  1  0  3  0  0  0  0  0  0
  124.6850  103.8760  -43.0070 C   0  0  0  1  0  3  0  0  0  0  0  0
  123.6670  106.7390  -45.3390 C   0  0  0  1  0  4  0  0  0  0  0  0
  124.6740  102.7730  -43.8740 C   0  0  0  1  0  3  0  0  0  0  0  0
  124.0340  104.2490  -45.6830 C   0  0  0  1  0  3  0  0  0  0  0  0
  125.9945  107.3981  -45.8746 C   0  0  0  1  0  4  0  0  0  0  0  0
  124.3470  102.9640  -45.2180 C   0  0  0  1  0  3  0  0  0  0  0  0
  124.2743  109.0959  -45.5545 C   0  0  0  1  0  4  0  0  0  0  0  0
  124.4050  106.2300  -42.6310 O   0  0  0  1  0  2  0  0  0  0  0  0
  125.1380  103.6400  -40.9640 I   0  0  0  1  0  1  0  0  0  0  0  0
  124.3140  101.3570  -46.5570 I   0  0  0  1  0  1  0  0  0  0  0  0
  122.7800  107.0891  -44.7904 H   0  0  0  1  0  1  0  0  0  0  0  0
  123.4236  106.6488  -46.4085 H   0  0  0  1  0  1  0  0  0  0  0  0
  124.9507  107.7760  -44.2051 H   0  0  0  1  0  1  0  0  0  0  0  0
  124.9170  101.7840  -43.5040 H   0  0  0  1  0  1  0  0  0  0  0  0
  123.7830  104.3910  -46.7280 H   0  0  0  1  0  1  0  0  0  0  0  0
  125.8353  107.4114  -46.9632 H   0  0  0  1  0  1  0  0  0  0  0  0
  126.3153  106.3932  -45.5629 H   0  0  0  1  0  1  0  0  0  0  0  0
  126.7721  108.1293  -45.6094 H   0  0  0  1  0  1  0  0  0  0  0  0
  124.1620  107.0120  -43.1120 H   0  0  0  1  0  1  0  0  0  0  0  0
  123.3274  109.3132  -45.0401 H   0  0  0  1  0  1  0  0  0  0  0  0
  124.1197  109.1479  -46.6430 H   0  0  0  1  0  1  0  0  0  0  0  0
  125.0320  109.8347  -45.2562 H   0  0  0  1  0  1  0  0  0  0  0  0
  1  5  1  0  0  0  0
  1  8  1  0  0  0  0
  1 10  1  0  0  0  0
  1 16  1  0  0  0  0
  2  3  2  0  0  0  0
  2  5  1  0  0  0  0
  2  7  1  0  0  0  0
  3  4  1  0  0  0  0
  3 11  1  0  0  0  0
  4  6  2  0  0  0  0
  4 12  1  0  0  0  0
  5 14  1  0  0  0  0
  5 15  1  0  0  0  0
  6  9  1  0  0  0  0
  6 17  1  0  0  0  0
  7  9  2  0  0  0  0
  7 18  1  0  0  0  0
  8 19  1  0  0  0  0
  8 20  1  0  0  0  0
  8 21  1  0  0  0  0
  9 13  1  0  0  0  0
 10 23  1  0  0  0  0
 10 24  1  0  0  0  0
 10 25  1  0  0  0  0
 11 22  1  0  0  0  0
M  END
> <ConfScore>
-0.781038

$$$$
4agl


 25 25  0  0  0  0  0  0  0  0999 V2000
  124.7166  107.7584  -45.1463 N   0  3  0  1  0  4  0  0  0  0  0  0
  124.0410  105.3610  -44.8150 C   0  0  0  1  0  3  0  0  0  0  0  0
  124.3680  105.1510  -43.4700 C   0  0  0  1  0  3  0  0  0  0  0  0
  124.6850  103.8760  -43.0070 C   0  0  0  1  0  3  0  0  0  0  0  0
  123.6670  106.7390  -45.3390 C   0  0  0  1  0  4  0  0  0  0  0  0
  124.6740  102.7730  -43.8740 C   0  0  0  1  0  3  0  0  0  0  0  0
  124.0340  104.2490  -45.6830 C   0  0  0  1  0  3  0  0  0  0  0  0
  126.0069  107.4230  -45.7817 C   0  0  0  1  0  4  0  0  0  0  0  0
  124.3470  102.9640  -45.2180 C   0  0  0  1  0  3  0  0  0  0  0  0
  124.2572  109.1023  -45.5305 C   0  0  0  1  0  4  0  0  0  0  0  0
  124.4050  106.2300  -42.6310 O   0  0  0  1  0  2  0  0  0  0  0  0
  125.1380  103.6400  -40.9640 I   0  0  0  1  0  1  0  0  0  0  0  0
  124.3140  101.3570  -46.5570 I   0  0  0  1  0  1  0  0  0  0  0  0
  122.7589  107.0737  -44.8159 H   0  0  0  1  0  1  0  0  0  0  0  0
  123.4586  106.6553  -46.4164 H   0  0  0  1  0  1  0  0  0  0  0  0
  124.8935  107.7893  -44.1551 H   0  0  0  1  0  1  0  0  0  0  0  0
  124.9170  101.7840  -43.5040 H   0  0  0  1  0  1  0  0  0  0  0  0
  123.7830  104.3910  -46.7280 H   0  0  0  1  0  1  0  0  0  0  0  0
  126.7301  108.2300  -45.5914 H   0  0  0  1  0  1  0  0  0  0  0  0
  125.8624  107.3078  -46.8661 H   0  0  0  1  0  1  0  0  0  0  0  0
  126.3897  106.4816  -45.3614 H   0  0  0  1  0  1  0  0  0  0  0  0
  124.1620  107.0120  -43.1120 H   0  0  0  1  0  1  0  0  0  0  0  0
  123.3788  109.3761  -44.9290 H   0  0  0  1  0  1  0  0  0  0  0  0
  123.9860  109.1062  -46.5972 H   0  0  0  1  0  1  0  0  0  0  0  0
  125.0634  109.8290  -45.3547 H   0  0  0  1  0  1  0  0  0  0  0  0
  1  5  1  0  0  0  0
  1  8  1  0  0  0  0
  1 10  1  0  0  0  0
  1 16  1  0  0  0  0
  2  3  2  0  0  0  0
  2  5  1  0  0  0  0
  2  7  1  0  0  0  0
  3  4  1  0  0  0  0
  3 11  1  0  0  0  0
  4  6  2  0  0  0  0
  4 12  1  0  0  0  0
  5 14  1  0  0  0  0
  5 15  1  0  0  0  0
  6  9  1  0  0  0  0
  6 17  1  0  0  0  0
  7  9  2  0  0  0  0
  7 18  1  0  0  0  0
  8 19  1  0  0  0  0
  8 20  1  0  0  0  0
  8 21  1  0  0  0  0
  9 13  1  0  0  0  0
 10 23  1  0  0  0  0
 10 24  1  0  0  0  0
 10 25  1  0  0  0  0
 11 22  1  0  0  0  0
M  END
> <ConfScore>
-0.781038

$$$$
4agl


 25 25  0  0  0  0  0  0  0  0999 V2000
  122.3094  106.8136  -45.9129 N   0  3  0  1  0  4  0  0  0  0  0  0
  124.0410  105.3610  -44.8150 C   0  0  0  1  0  3  0  0  0  0  0  0
  124.3680  105.1510  -43.4700 C   0  0  0  1  0  3  0  0  0  0  0  0
  124.6850  103.8760  -43.0070 C   0  0  0  1  0  3  0  0  0  0  0  0
  123.6670  106.7390  -45.3390 C   0  0  0  1  0  4  0  0  0  0  0  0
  124.6740  102.7730  -43.8740 C   0  0  0  1  0  3  0  0  0  0  0  0
  124.0340  104.2490  -45.6830 C   0  0  0  1  0  3  0  0  0  0  0  0
  121.2314  106.4963  -44.9545 C   0  0  0  1  0  4  0  0  0  0  0  0
  124.3470  102.9640  -45.2180 C   0  0  0  1  0  3  0  0  0  0  0  0
  122.0682  108.0953  -46.5939 C   0  0  0  1  0  4  0  0  0  0  0  0
  124.4050  106.2300  -42.6310 O   0  0  0  1  0  2  0  0  0  0  0  0
  125.1380  103.6400  -40.9640 I   0  0  0  1  0  1  0  0  0  0  0  0
  124.3140  101.3570  -46.5570 I   0  0  0  1  0  1  0  0  0  0  0  0
  124.3890  107.0203  -46.1199 H   0  0  0  1  0  1  0  0  0  0  0  0
  123.7312  107.4557  -44.5062 H   0  0  0  1  0  1  0  0  0  0  0  0
  122.2699  106.1005  -46.6232 H   0  0  0  1  0  1  0  0  0  0  0  0
  124.9170  101.7840  -43.5040 H   0  0  0  1  0  1  0  0  0  0  0  0
  123.7830  104.3910  -46.7280 H   0  0  0  1  0  1  0  0  0  0  0  0
  120.2571  106.5746  -45.4595 H   0  0  0  1  0  1  0  0  0  0  0  0
  121.2674  107.2055  -44.1145 H   0  0  0  1  0  1  0  0  0  0  0  0
  121.3662  105.4727  -44.5755 H   0  0  0  1  0  1  0  0  0  0  0  0
  124.1620  107.0120  -43.1120 H   0  0  0  1  0  1  0  0  0  0  0  0
  122.8043  108.2271  -47.3997 H   0  0  0  1  0  1  0  0  0  0  0  0
  122.1659  108.9191  -45.8706 H   0  0  0  1  0  1  0  0  0  0  0  0
  121.0541  108.0990  -47.0189 H   0  0  0  1  0  1  0  0  0  0  0  0
  1  5  1  0  0  0  0
  1  8  1  0  0  0  0
  1 10  1  0  0  0  0
  1 16  1  0  0  0  0
  2  3  2  0  0  0  0
  2  5  1  0  0  0  0
  2  7  1  0  0  0  0
  3  4  1  0  0  0  0
  3 11  1  0  0  0  0
  4  6  2  0  0  0  0
  4 12  1  0  0  0  0
  5 14  1  0  0  0  0
  5 15  1  0  0  0  0
  6  9  1  0  0  0  0
  6 17  1  0  0  0  0
  7  9  2  0  0  0  0
  7 18  1  0  0  0  0
  8 19  1  0  0  0  0
  8 20  1  0  0  0  0
  8 21  1  0  0  0  0
  9 13  1  0  0  0  0
 10 23  1  0  0  0  0
 10 24  1  0  0  0  0
 10 25  1  0  0  0  0
 11 22  1  0  0  0  0
M  END
> <ConfScore>
-0.781038

$$$$
4agl


 25 25  0  0  0  0  0  0  0  0999 V2000
  122.3094  106.8136  -45.9129 N   0  3  0  1  0  4  0  0  0  0  0  0
  124.0410  105.3610  -44.8150 C   0  0  0  1  0  3  0  0  0  0  0  0
  124.3680  105.1510  -43.4700 C   0  0  0  1  0  3  0  0  0  0  0  0
  124.6850  103.8760  -43.0070 C   0  0  0  1  0  3  0  0  0  0  0  0
  123.6670  106.7390  -45.3390 C   0  0  0  1  0  4  0  0  0  0  0  0
  124.6740  102.7730  -43.8740 C   0  0  0  1  0  3  0  0  0  0  0  0
  124.0340  104.2490  -45.6830 C   0  0  0  1  0  3  0  0  0  0  0  0
  121.2524  106.2760  -45.0327 C   0  0  0  1  0  4  0  0  0  0  0  0
  124.3470  102.9640  -45.2180 C   0  0  0  1  0  3  0  0  0  0  0  0
  121.9837  108.1686  -46.3845 C   0  0  0  1  0  4  0  0  0  0  0  0
  124.4050  106.2300  -42.6310 O   0  0  0  1  0  2  0  0  0  0  0  0
  125.1380  103.6400  -40.9640 I   0  0  0  1  0  1  0  0  0  0  0  0
  124.3140  101.3570  -46.5570 I   0  0  0  1  0  1  0  0  0  0  0  0
  124.3890  107.0203  -46.1199 H   0  0  0  1  0  1  0  0  0  0  0  0
  123.7312  107.4557  -44.5062 H   0  0  0  1  0  1  0  0  0  0  0  0
  122.3209  106.2222  -46.7282 H   0  0  0  1  0  1  0  0  0  0  0  0
  124.9170  101.7840  -43.5040 H   0  0  0  1  0  1  0  0  0  0  0  0
  123.7830  104.3910  -46.7280 H   0  0  0  1  0  1  0  0  0  0  0  0
  120.2766  106.3688  -45.5325 H   0  0  0  1  0  1  0  0  0  0  0  0
  121.2371  106.8426  -44.0900 H   0  0  0  1  0  1  0  0  0  0  0  0
  121.4553  105.2163  -44.8196 H   0  0  0  1  0  1  0  0  0  0  0  0
  124.1620  107.0120  -43.1120 H   0  0  0  1  0  1  0  0  0  0  0  0
  121.8747  108.8414  -45.5219 H   0  0  0  1  0  1  0  0  0  0  0  0
  121.0400  108.1432  -46.9502 H   0  0  0  1  0  1  0  0  0  0  0  0
  122.7914  108.5339  -47.0351 H   0  0  0  1  0  1  0  0  0  0  0  0
  1  5  1  0  0  0  0
  1  8  1  0  0  0  0
  1 10  1  0  0  0  0
  1 16  1  0  0  0  0
  2  3  2  0  0  0  0
  2  5  1  0  0  0  0
  2  7  1  0  0  0  0
  3  4  1  0  0  0  0
  3 11  1  0  0  0  0
  4  6  2  0  0  0  0
  4 12  1  0  0  0  0
  5 14  1  0  0  0  0
  5 15  1  0  0  0  0
  6  9  1  0  0  0  0
  6 17  1  0  0  0  0
  7  9  2  0  0  0  0
  7 18  1  0  0  0  0
  8 19  1  0  0  0  0
  8 20  1  0  0  0  0
  8 21  1  0  0  0  0
  9 13  1  0  0  0  0
 10 23  1  0  0  0  0
 10 24  1  0  0  0  0
 10 25  1  0  0  0  0
 11 22  1  0  0  0  0
M  END
> <ConfScore>
-0.781038

$$$$
4agl


 25 25  0  0  0  0  0  0  0  0999 V2000
  122.2954  106.8234  -45.8772 N   0  3  0  1  0  4  0  0  0  0  0  0
  124.0410  105.3610  -44.8150 C   0  0  0  1  0  3  0  0  0  0  0  0
  124.3680  105.1510  -43.4700 C   0  0  0  1  0  3  0  0  0  0  0  0
  124.6850  103.8760  -43.0070 C   0  0  0  1  0  3  0  0  0  0  0  0
  123.6670  106.7390  -45.3390 C   0  0  0  1  0  4  0  0  0  0  0  0
  124.6740  102.7730  -43.8740 C   0  0  0  1  0  3  0  0  0  0  0  0
  124.0340  104.2490  -45.6830 C   0  0  0  1  0  3  0  0  0  0  0  0
  121.2446  106.4405  -44.9126 C   0  0  0  1  0  4  0  0  0  0  0  0
  124.3470  102.9640  -45.2180 C   0  0  0  1  0  3  0  0  0  0  0  0
  122.0210  108.1352  -46.4842 C   0  0  0  1  0  4  0  0  0  0  0  0
  124.4050  106.2300  -42.6310 O   0  0  0  1  0  2  0  0  0  0  0  0
  125.1380  103.6400  -40.9640 I   0  0  0  1  0  1  0  0  0  0  0  0
  124.3140  101.3570  -46.5570 I   0  0  0  1  0  1  0  0  0  0  0  0
  124.3708  107.0074  -46.1409 H   0  0  0  1  0  1  0  0  0  0  0  0
  123.7605  107.4608  -44.5135 H   0  0  0  1  0  1  0  0  0  0  0  0
  122.2490  106.1479  -46.6230 H   0  0  0  1  0  1  0  0  0  0  0  0
  124.9170  101.7840  -43.5040 H   0  0  0  1  0  1  0  0  0  0  0  0
  123.7830  104.3910  -46.7280 H   0  0  0  1  0  1  0  0  0  0  0  0
  121.4747  105.4493  -44.4941 H   0  0  0  1  0  1  0  0  0  0  0  0
  120.2719  106.4058  -45.4250 H   0  0  0  1  0  1  0  0  0  0  0  0
  121.2043  107.1806  -44.1002 H   0  0  0  1  0  1  0  0  0  0  0  0
  124.1620  107.0120  -43.1120 H   0  0  0  1  0  1  0  0  0  0  0  0
  121.0681  108.0947  -47.0309 H   0  0  0  1  0  1  0  0  0  0  0  0
  122.8322  108.3936  -47.1817 H   0  0  0  1  0  1  0  0  0  0  0  0
  121.9592  108.8982  -45.6949 H   0  0  0  1  0  1  0  0  0  0  0  0
  1  5  1  0  0  0  0
  1  8  1  0  0  0  0
  1 10  1  0  0  0  0
  1 16  1  0  0  0  0
  2  3  2  0  0  0  0
  2  5  1  0  0  0  0
  2  7  1  0  0  0  0
  3  4  1  0  0  0  0
  3 11  1  0  0  0  0
  4  6  2  0  0  0  0
  4 12  1  0  0  0  0
  5 14  1  0  0  0  0
  5 15  1  0  0  0  0
  6  9  1  0  0  0  0
  6 17  1  0  0  0  0
  7  9  2  0  0  0  0
  7 18  1  0  0  0  0
  8 19  1  0  0  0  0
  8 20  1  0  0  0  0
  8 21  1  0  0  0  0
  9 13  1  0  0  0  0
 10 23  1  0  0  0  0
 10 24  1  0  0  0  0
 10 25  1  0  0  0  0
 11 22  1  0  0  0  0
M  END
> <ConfScore>
-0.781038

$$$$
4agl


 25 25  0  0  0  0  0  0  0  0999 V2000
  124.7439  107.7402  -45.2136 N   0  3  0  1  0  4  0  0  0  0  0  0
  124.0410  105.3610  -44.8150 C   0  0  0  1  0  3  0  0  0  0  0  0
  124.3680  105.1510  -43.4700 C   0  0  0  1  0  3  0  0  0  0  0  0
  124.6850  103.8760  -43.0070 C   0  0  0  1  0  3  0  0  0  0  0  0
  123.6670  106.7390  -45.3390 C   0  0  0  1  0  4  0  0  0  0  0  0
  124.6740  102.7730  -43.8740 C   0  0  0  1  0  3  0  0  0  0  0  0
  124.0340  104.2490  -45.6830 C   0  0  0  1  0  3  0  0  0  0  0  0
  126.0545  107.2825  -45.7177 C   0  0  0  1  0  4  0  0  0  0  0  0
  124.3470  102.9640  -45.2180 C   0  0  0  1  0  3  0  0  0  0  0  0
  124.3626  109.0362  -45.7963 C   0  0  0  1  0  4  0  0  0  0  0  0
  124.4050  106.2300  -42.6310 O   0  0  0  1  0  2  0  0  0  0  0  0
  125.1380  103.6400  -40.9640 I   0  0  0  1  0  1  0  0  0  0  0  0
  124.3140  101.3570  -46.5570 I   0  0  0  1  0  1  0  0  0  0  0  0
  122.7929  107.0982  -44.7758 H   0  0  0  1  0  1  0  0  0  0  0  0
  123.4030  106.6452  -46.4033 H   0  0  0  1  0  1  0  0  0  0  0  0
  124.8638  107.8952  -44.2256 H   0  0  0  1  0  1  0  0  0  0  0  0
  124.9170  101.7840  -43.5040 H   0  0  0  1  0  1  0  0  0  0  0  0
  123.7830  104.3910  -46.7280 H   0  0  0  1  0  1  0  0  0  0  0  0
  126.3130  106.3219  -45.2475 H   0  0  0  1  0  1  0  0  0  0  0  0
  126.8231  108.0300  -45.4719 H   0  0  0  1  0  1  0  0  0  0  0  0
  126.0041  107.1542  -46.8088 H   0  0  0  1  0  1  0  0  0  0  0  0
  124.1620  107.0120  -43.1120 H   0  0  0  1  0  1  0  0  0  0  0  0
  124.3184  108.9479  -46.8912 H   0  0  0  1  0  1  0  0  0  0  0  0
  125.1091  109.7964  -45.5204 H   0  0  0  1  0  1  0  0  0  0  0  0
  123.3765  109.3346  -45.4121 H   0  0  0  1  0  1  0  0  0  0  0  0
  1  5  1  0  0  0  0
  1  8  1  0  0  0  0
  1 10  1  0  0  0  0
  1 16  1  0  0  0  0
  2  3  2  0  0  0  0
  2  5  1  0  0  0  0
  2  7  1  0  0  0  0
  3  4  1  0  0  0  0
  3 11  1  0  0  0  0
  4  6  2  0  0  0  0
  4 12  1  0  0  0  0
  5 14  1  0  0  0  0
  5 15  1  0  0  0  0
  6  9  1  0  0  0  0
  6 17  1  0  0  0  0
  7  9  2  0  0  0  0
  7 18  1  0  0  0  0
  8 19  1  0  0  0  0
  8 20  1  0  0  0  0
  8 21  1  0  0  0  0
  9 13  1  0  0  0  0
 10 23  1  0  0  0  0
 10 24  1  0  0  0  0
 10 25  1  0  0  0  0
 11 22  1  0  0  0  0
M  END
> <ConfScore>
-0.781038

$$$$
4agl


 25 25  0  0  0  0  0  0  0  0999 V2000
  124.7166  107.7584  -45.1463 N   0  3  0  1  0  4  0  0  0  0  0  0
  124.0410  105.3610  -44.8150 C   0  0  0  1  0  3  0  0  0  0  0  0
  124.3680  105.1510  -43.4700 C   0  0  0  1  0  3  0  0  0  0  0  0
  124.6850  103.8760  -43.0070 C   0  0  0  1  0  3  0  0  0  0  0  0
  123.6670  106.7390  -45.3390 C   0  0  0  1  0  4  0  0  0  0  0  0
  124.6740  102.7730  -43.8740 C   0  0  0  1  0  3  0  0  0  0  0  0
  124.0340  104.2490  -45.6830 C   0  0  0  1  0  3  0  0  0  0  0  0
  125.9874  107.4528  -45.8338 C   0  0  0  1  0  4  0  0  0  0  0  0
  124.3470  102.9640  -45.2180 C   0  0  0  1  0  3  0  0  0  0  0  0
  124.2376  109.1112  -45.4705 C   0  0  0  1  0  4  0  0  0  0  0  0
  124.4050  106.2300  -42.6310 O   0  0  0  1  0  2  0  0  0  0  0  0
  125.1380  103.6400  -40.9640 I   0  0  0  1  0  1  0  0  0  0  0  0
  124.3140  101.3570  -46.5570 I   0  0  0  1  0  1  0  0  0  0  0  0
  122.7589  107.0737  -44.8159 H   0  0  0  1  0  1  0  0  0  0  0  0
  123.4586  106.6553  -46.4164 H   0  0  0  1  0  1  0  0  0  0  0  0
  124.9253  107.7576  -44.1609 H   0  0  0  1  0  1  0  0  0  0  0  0
  124.9170  101.7840  -43.5040 H   0  0  0  1  0  1  0  0  0  0  0  0
  123.7830  104.3910  -46.7280 H   0  0  0  1  0  1  0  0  0  0  0  0
  126.3130  106.4361  -45.5677 H   0  0  0  1  0  1  0  0  0  0  0  0
  126.7552  108.1769  -45.5237 H   0  0  0  1  0  1  0  0  0  0  0  0
  125.8414  107.5174  -46.9219 H   0  0  0  1  0  1  0  0  0  0  0  0
  124.1620  107.0120  -43.1120 H   0  0  0  1  0  1  0  0  0  0  0  0
  125.0438  109.8379  -45.2961 H   0  0  0  1  0  1  0  0  0  0  0  0
  123.3770  109.3588  -44.8306 H   0  0  0  1  0  1  0  0  0  0  0  0
  123.9320  109.1483  -46.5261 H   0  0  0  1  0  1  0  0  0  0  0  0
  1  5  1  0  0  0  0
  1  8  1  0  0  0  0
  1 10  1  0  0  0  0
  1 16  1  0  0  0  0
  2  3  2  0  0  0  0
  2  5  1  0  0  0  0
  2  7  1  0  0  0  0
  3  4  1  0  0  0  0
  3 11  1  0  0  0  0
  4  6  2  0  0  0  0
  4 12  1  0  0  0  0
  5 14  1  0  0  0  0
  5 15  1  0  0  0  0
  6  9  1  0  0  0  0
  6 17  1  0  0  0  0
  7  9  2  0  0  0  0
  7 18  1  0  0  0  0
  8 19  1  0  0  0  0
  8 20  1  0  0  0  0
  8 21  1  0  0  0  0
  9 13  1  0  0  0  0
 10 23  1  0  0  0  0
 10 24  1  0  0  0  0
 10 25  1  0  0  0  0
 11 22  1  0  0  0  0
M  END
> <ConfScore>
-0.781038

$$$$
4agl


 25 25  0  0  0  0  0  0  0  0999 V2000
  122.2890  106.8283  -45.8597 N   0  3  0  1  0  4  0  0  0  0  0  0
  124.0410  105.3610  -44.8150 C   0  0  0  1  0  3  0  0  0  0  0  0
  124.3680  105.1510  -43.4700 C   0  0  0  1  0  3  0  0  0  0  0  0
  124.6850  103.8760  -43.0070 C   0  0  0  1  0  3  0  0  0  0  0  0
  123.6670  106.7390  -45.3390 C   0  0  0  1  0  4  0  0  0  0  0  0
  124.6740  102.7730  -43.8740 C   0  0  0  1  0  3  0  0  0  0  0  0
  124.0340  104.2490  -45.6830 C   0  0  0  1  0  3  0  0  0  0  0  0
  122.0488  106.0190  -47.0716 C   0  0  0  1  0  4  0  0  0  0  0  0
  124.3470  102.9640  -45.2180 C   0  0  0  1  0  3  0  0  0  0  0  0
  121.2870  106.5536  -44.8181 C   0  0  0  1  0  4  0  0  0  0  0  0
  124.4050  106.2300  -42.6310 O   0  0  0  1  0  2  0  0  0  0  0  0
  125.1380  103.6400  -40.9640 I   0  0  0  1  0  1  0  0  0  0  0  0
  124.3140  101.3570  -46.5570 I   0  0  0  1  0  1  0  0  0  0  0  0
  124.3617  107.0011  -46.1508 H   0  0  0  1  0  1  0  0  0  0  0  0
  123.7747  107.4632  -44.5173 H   0  0  0  1  0  1  0  0  0  0  0  0
  122.1592  107.7884  -46.1353 H   0  0  0  1  0  1  0  0  0  0  0  0
  124.9170  101.7840  -43.5040 H   0  0  0  1  0  1  0  0  0  0  0  0
  123.7830  104.3910  -46.7280 H   0  0  0  1  0  1  0  0  0  0  0  0
  122.1164  104.9505  -46.8183 H   0  0  0  1  0  1  0  0  0  0  0  0
  122.8048  106.2644  -47.8319 H   0  0  0  1  0  1  0  0  0  0  0  0
  121.0466  106.2388  -47.4675 H   0  0  0  1  0  1  0  0  0  0  0  0
  124.1620  107.0120  -43.1120 H   0  0  0  1  0  1  0  0  0  0  0  0
  121.5077  107.1589  -43.9274 H   0  0  0  1  0  1  0  0  0  0  0  0
  121.3178  105.4861  -44.5518 H   0  0  0  1  0  1  0  0  0  0  0  0
  120.2864  106.8083  -45.1962 H   0  0  0  1  0  1  0  0  0  0  0  0
  1  5  1  0  0  0  0
  1  8  1  0  0  0  0
  1 10  1  0  0  0  0
  1 16  1  0  0  0  0
  2  3  2  0  0  0  0
  2  5  1  0  0  0  0
  2  7  1  0  0  0  0
  3  4  1  0  0  0  0
  3 11  1  0  0  0  0
  4  6  2  0  0  0  0
  4 12  1  0  0  0  0
  5 14  1  0  0  0  0
  5 15  1  0  0  0  0
  6  9  1  0  0  0  0
  6 17  1  0  0  0  0
  7  9  2  0  0  0  0
  7 18  1  0  0  0  0
  8 19  1  0  0  0  0
  8 20  1  0  0  0  0
  8 21  1  0  0  0  0
  9 13  1  0  0  0  0
 10 23  1  0  0  0  0
 10 24  1  0  0  0  0
 10 25  1  0  0  0  0
 11 22  1  0  0  0  0
M  END
> <ConfScore>
-0.771112

$$$$
4agl


 25 25  0  0  0  0  0  0  0  0999 V2000
  122.3094  106.8136  -45.9129 N   0  3  0  1  0  4  0  0  0  0  0  0
  124.0410  105.3610  -44.8150 C   0  0  0  1  0  3  0  0  0  0  0  0
  124.3680  105.1510  -43.4700 C   0  0  0  1  0  3  0  0  0  0  0  0
  124.6850  103.8760  -43.0070 C   0  0  0  1  0  3  0  0  0  0  0  0
  123.6670  106.7390  -45.3390 C   0  0  0  1  0  4  0  0  0  0  0  0
  124.6740  102.7730  -43.8740 C   0  0  0  1  0  3  0  0  0  0  0  0
  124.0340  104.2490  -45.6830 C   0  0  0  1  0  3  0  0  0  0  0  0
  122.1359  106.0329  -47.1545 C   0  0  0  1  0  4  0  0  0  0  0  0
  124.3470  102.9640  -45.2180 C   0  0  0  1  0  3  0  0  0  0  0  0
  121.2726  106.4896  -44.9205 C   0  0  0  1  0  4  0  0  0  0  0  0
  124.4050  106.2300  -42.6310 O   0  0  0  1  0  2  0  0  0  0  0  0
  125.1380  103.6400  -40.9640 I   0  0  0  1  0  1  0  0  0  0  0  0
  124.3140  101.3570  -46.5570 I   0  0  0  1  0  1  0  0  0  0  0  0
  124.3890  107.0203  -46.1199 H   0  0  0  1  0  1  0  0  0  0  0  0
  123.7312  107.4557  -44.5062 H   0  0  0  1  0  1  0  0  0  0  0  0
  122.1696  107.7780  -46.1680 H   0  0  0  1  0  1  0  0  0  0  0  0
  124.9170  101.7840  -43.5040 H   0  0  0  1  0  1  0  0  0  0  0  0
  123.7830  104.3910  -46.7280 H   0  0  0  1  0  1  0  0  0  0  0  0
  122.9166  106.3145  -47.8768 H   0  0  0  1  0  1  0  0  0  0  0  0
  121.1454  106.2431  -47.5841 H   0  0  0  1  0  1  0  0  0  0  0  0
  122.2165  104.9597  -46.9280 H   0  0  0  1  0  1  0  0  0  0  0  0
  124.1620  107.0120  -43.1120 H   0  0  0  1  0  1  0  0  0  0  0  0
  121.4441  107.0749  -44.0059 H   0  0  0  1  0  1  0  0  0  0  0  0
  121.3162  105.4161  -44.6816 H   0  0  0  1  0  1  0  0  0  0  0  0
  120.2827  106.7336  -45.3322 H   0  0  0  1  0  1  0  0  0  0  0  0
  1  5  1  0  0  0  0
  1  8  1  0  0  0  0
  1 10  1  0  0  0  0
  1 16  1  0  0  0  0
  2  3  2  0  0  0  0
  2  5  1  0  0  0  0
  2  7  1  0  0  0  0
  3  4  1  0  0  0  0
  3 11  1  0  0  0  0
  4  6  2  0  0  0  0
  4 12  1  0  0  0  0
  5 14  1  0  0  0  0
  5 15  1  0  0  0  0
  6  9  1  0  0  0  0
  6 17  1  0  0  0  0
  7  9  2  0  0  0  0
  7 18  1  0  0  0  0
  8 19  1  0  0  0  0
  8 20  1  0  0  0  0
  8 21  1  0  0  0  0
  9 13  1  0  0  0  0
 10 23  1  0  0  0  0
 10 24  1  0  0  0  0
 10 25  1  0  0  0  0
 11 22  1  0  0  0  0
M  END
> <ConfScore>
-0.771112

$$$$
4agl


 25 25  0  0  0  0  0  0  0  0999 V2000
  124.7342  107.7472  -45.1885 N   0  3  0  1  0  4  0  0  0  0  0  0
  124.0410  105.3610  -44.8150 C   0  0  0  1  0  3  0  0  0  0  0  0
  124.3680  105.1510  -43.4700 C   0  0  0  1  0  3  0  0  0  0  0  0
  124.6850  103.8760  -43.0070 C   0  0  0  1  0  3  0  0  0  0  0  0
  123.6670  106.7390  -45.3390 C   0  0  0  1  0  4  0  0  0  0  0  0
  124.6740  102.7730  -43.8740 C   0  0  0  1  0  3  0  0  0  0  0  0
  124.0340  104.2490  -45.6830 C   0  0  0  1  0  3  0  0  0  0  0  0
  125.0042  108.1350  -43.7893 C   0  0  0  1  0  4  0  0  0  0  0  0
  124.3470  102.9640  -45.2180 C   0  0  0  1  0  3  0  0  0  0  0  0
  125.9670  107.3540  -45.8886 C   0  0  0  1  0  4  0  0  0  0  0  0
  124.4050  106.2300  -42.6310 O   0  0  0  1  0  2  0  0  0  0  0  0
  125.1380  103.6400  -40.9640 I   0  0  0  1  0  1  0  0  0  0  0  0
  124.3140  101.3570  -46.5570 I   0  0  0  1  0  1  0  0  0  0  0  0
  122.7800  107.0891  -44.7904 H   0  0  0  1  0  1  0  0  0  0  0  0
  123.4236  106.6488  -46.4085 H   0  0  0  1  0  1  0  0  0  0  0  0
  124.3969  108.5777  -45.6480 H   0  0  0  1  0  1  0  0  0  0  0  0
  124.9170  101.7840  -43.5040 H   0  0  0  1  0  1  0  0  0  0  0  0
  123.7830  104.3910  -46.7280 H   0  0  0  1  0  1  0  0  0  0  0  0
  124.0640  108.4386  -43.3050 H   0  0  0  1  0  1  0  0  0  0  0  0
  125.7137  108.9754  -43.7723 H   0  0  0  1  0  1  0  0  0  0  0  0
  125.4357  107.2806  -43.2478 H   0  0  0  1  0  1  0  0  0  0  0  0
  124.1620  107.0120  -43.1120 H   0  0  0  1  0  1  0  0  0  0  0  0
  125.7251  107.0557  -46.9186 H   0  0  0  1  0  1  0  0  0  0  0  0
  126.4336  106.5074  -45.3624 H   0  0  0  1  0  1  0  0  0  0  0  0
  126.6647  108.2036  -45.9068 H   0  0  0  1  0  1  0  0  0  0  0  0
  1  5  1  0  0  0  0
  1  8  1  0  0  0  0
  1 10  1  0  0  0  0
  1 16  1  0  0  0  0
  2  3  2  0  0  0  0
  2  5  1  0  0  0  0
  2  7  1  0  0  0  0
  3  4  1  0  0  0  0
  3 11  1  0  0  0  0
  4  6  2  0  0  0  0
  4 12  1  0  0  0  0
  5 14  1  0  0  0  0
  5 15  1  0  0  0  0
  6  9  1  0  0  0  0
  6 17  1  0  0  0  0
  7  9  2  0  0  0  0
  7 18  1  0  0  0  0
  8 19  1  0  0  0  0
  8 20  1  0  0  0  0
  8 21  1  0  0  0  0
  9 13  1  0  0  0  0
 10 23  1  0  0  0  0
 10 24  1  0  0  0  0
 10 25  1  0  0  0  0
 11 22  1  0  0  0  0
M  END
> <ConfScore>
-0.771112

$$$$
4agl


 25 25  0  0  0  0  0  0  0  0999 V2000
  122.3094  106.8136  -45.9129 N   0  3  0  1  0  4  0  0  0  0  0  0
  124.0410  105.3610  -44.8150 C   0  0  0  1  0  3  0  0  0  0  0  0
  124.3680  105.1510  -43.4700 C   0  0  0  1  0  3  0  0  0  0  0  0
  124.6850  103.8760  -43.0070 C   0  0  0  1  0  3  0  0  0  0  0  0
  123.6670  106.7390  -45.3390 C   0  0  0  1  0  4  0  0  0  0  0  0
  124.6740  102.7730  -43.8740 C   0  0  0  1  0  3  0  0  0  0  0  0
  124.0340  104.2490  -45.6830 C   0  0  0  1  0  3  0  0  0  0  0  0
  122.1359  106.0329  -47.1545 C   0  0  0  1  0  4  0  0  0  0  0  0
  124.3470  102.9640  -45.2180 C   0  0  0  1  0  3  0  0  0  0  0  0
  121.2726  106.4896  -44.9205 C   0  0  0  1  0  4  0  0  0  0  0  0
  124.4050  106.2300  -42.6310 O   0  0  0  1  0  2  0  0  0  0  0  0
  125.1380  103.6400  -40.9640 I   0  0  0  1  0  1  0  0  0  0  0  0
  124.3140  101.3570  -46.5570 I   0  0  0  1  0  1  0  0  0  0  0  0
  124.3890  107.0203  -46.1199 H   0  0  0  1  0  1  0  0  0  0  0  0
  123.7312  107.4557  -44.5062 H   0  0  0  1  0  1  0  0  0  0  0  0
  122.1696  107.7780  -46.1680 H   0  0  0  1  0  1  0  0  0  0  0  0
  124.9170  101.7840  -43.5040 H   0  0  0  1  0  1  0  0  0  0  0  0
  123.7830  104.3910  -46.7280 H   0  0  0  1  0  1  0  0  0  0  0  0
  122.9166  106.3145  -47.8768 H   0  0  0  1  0  1  0  0  0  0  0  0
  121.1454  106.2431  -47.5841 H   0  0  0  1  0  1  0  0  0  0  0  0
  122.2165  104.9597  -46.9280 H   0  0  0  1  0  1  0  0  0  0  0  0
  124.1620  107.0120  -43.1120 H   0  0  0  1  0  1  0  0  0  0  0  0
  120.2801  106.5749  -45.3852 H   0  0  0  1  0  1  0  0  0  0  0  0
  121.3423  107.1908  -44.0750 H   0  0  0  1  0  1  0  0  0  0  0  0
  121.4211  105.4623  -44.5579 H   0  0  0  1  0  1  0  0  0  0  0  0
  1  5  1  0  0  0  0
  1  8  1  0  0  0  0
  1 10  1  0  0  0  0
  1 16  1  0  0  0  0
  2  3  2  0  0  0  0
  2  5  1  0  0  0  0
  2  7  1  0  0  0  0
  3  4  1  0  0  0  0
  3 11  1  0  0  0  0
  4  6  2  0  0  0  0
  4 12  1  0  0  0  0
  5 14  1  0  0  0  0
  5 15  1  0  0  0  0
  6  9  1  0  0  0  0
  6 17  1  0  0  0  0
  7  9  2  0  0  0  0
  7 18  1  0  0  0  0
  8 19  1  0  0  0  0
  8 20  1  0  0  0  0
  8 21  1  0  0  0  0
  9 13  1  0  0  0  0
 10 23  1  0  0  0  0
 10 24  1  0  0  0  0
 10 25  1  0  0  0  0
 11 22  1  0  0  0  0
M  END
> <ConfScore>
-0.771112

$$$$
4agl


 25 25  0  0  0  0  0  0  0  0999 V2000
  124.7342  107.7472  -45.1885 N   0  3  0  1  0  4  0  0  0  0  0  0
  124.0410  105.3610  -44.8150 C   0  0  0  1  0  3  0  0  0  0  0  0
  124.3680  105.1510  -43.4700 C   0  0  0  1  0  3  0  0  0  0  0  0
  124.6850  103.8760  -43.0070 C   0  0  0  1  0  3  0  0  0  0  0  0
  123.6670  106.7390  -45.3390 C   0  0  0  1  0  4  0  0  0  0  0  0
  124.6740  102.7730  -43.8740 C   0  0  0  1  0  3  0  0  0  0  0  0
  124.0340  104.2490  -45.6830 C   0  0  0  1  0  3  0  0  0  0  0  0
  125.0042  108.1350  -43.7893 C   0  0  0  1  0  4  0  0  0  0  0  0
  124.3470  102.9640  -45.2180 C   0  0  0  1  0  3  0  0  0  0  0  0
  125.9670  107.3540  -45.8886 C   0  0  0  1  0  4  0  0  0  0  0  0
  124.4050  106.2300  -42.6310 O   0  0  0  1  0  2  0  0  0  0  0  0
  125.1380  103.6400  -40.9640 I   0  0  0  1  0  1  0  0  0  0  0  0
  124.3140  101.3570  -46.5570 I   0  0  0  1  0  1  0  0  0  0  0  0
  122.7800  107.0891  -44.7904 H   0  0  0  1  0  1  0  0  0  0  0  0
  123.4236  106.6488  -46.4085 H   0  0  0  1  0  1  0  0  0  0  0  0
  124.3969  108.5777  -45.6480 H   0  0  0  1  0  1  0  0  0  0  0  0
  124.9170  101.7840  -43.5040 H   0  0  0  1  0  1  0  0  0  0  0  0
  123.7830  104.3910  -46.7280 H   0  0  0  1  0  1  0  0  0  0  0  0
  124.0640  108.4386  -43.3050 H   0  0  0  1  0  1  0  0  0  0  0  0
  125.7137  108.9754  -43.7723 H   0  0  0  1  0  1  0  0  0  0  0  0
  125.4357  107.2806  -43.2478 H   0  0  0  1  0  1  0  0  0  0  0  0
  124.1620  107.0120  -43.1120 H   0  0  0  1  0  1  0  0  0  0  0  0
  126.7260  108.1395  -45.7650 H   0  0  0  1  0  1  0  0  0  0  0  0
  125.7529  107.2173  -46.9596 H   0  0  0  1  0  1  0  0  0  0  0  0
  126.3429  106.4108  -45.4667 H   0  0  0  1  0  1  0  0  0  0  0  0
  1  5  1  0  0  0  0
  1  8  1  0  0  0  0
  1 10  1  0  0  0  0
  1 16  1  0  0  0  0
  2  3  2  0  0  0  0
  2  5  1  0  0  0  0
  2  7  1  0  0  0  0
  3  4  1  0  0  0  0
  3 11  1  0  0  0  0
  4  6  2  0  0  0  0
  4 12  1  0  0  0  0
  5 14  1  0  0  0  0
  5 15  1  0  0  0  0
  6  9  1  0  0  0  0
  6 17  1  0  0  0  0
  7  9  2  0  0  0  0
  7 18  1  0  0  0  0
  8 19  1  0  0  0  0
  8 20  1  0  0  0  0
  8 21  1  0  0  0  0
  9 13  1  0  0  0  0
 10 23  1  0  0  0  0
 10 24  1  0  0  0  0
 10 25  1  0  0  0  0
 11 22  1  0  0  0  0
M  END
> <ConfScore>
-0.771112

$$$$
4agl


 25 25  0  0  0  0  0  0  0  0999 V2000
  124.7166  107.7584  -45.1463 N   0  3  0  1  0  4  0  0  0  0  0  0
  124.0410  105.3610  -44.8150 C   0  0  0  1  0  3  0  0  0  0  0  0
  124.3680  105.1510  -43.4700 C   0  0  0  1  0  3  0  0  0  0  0  0
  124.6850  103.8760  -43.0070 C   0  0  0  1  0  3  0  0  0  0  0  0
  123.6670  106.7390  -45.3390 C   0  0  0  1  0  4  0  0  0  0  0  0
  124.6740  102.7730  -43.8740 C   0  0  0  1  0  3  0  0  0  0  0  0
  124.0340  104.2490  -45.6830 C   0  0  0  1  0  3  0  0  0  0  0  0
  124.9699  108.1032  -43.7328 C   0  0  0  1  0  4  0  0  0  0  0  0
  124.3470  102.9640  -45.2180 C   0  0  0  1  0  3  0  0  0  0  0  0
  125.9607  107.4088  -45.8495 C   0  0  0  1  0  4  0  0  0  0  0  0
  124.4050  106.2300  -42.6310 O   0  0  0  1  0  2  0  0  0  0  0  0
  125.1380  103.6400  -40.9640 I   0  0  0  1  0  1  0  0  0  0  0  0
  124.3140  101.3570  -46.5570 I   0  0  0  1  0  1  0  0  0  0  0  0
  122.7589  107.0737  -44.8159 H   0  0  0  1  0  1  0  0  0  0  0  0
  123.4586  106.6553  -46.4164 H   0  0  0  1  0  1  0  0  0  0  0  0
  124.3692  108.5984  -45.5803 H   0  0  0  1  0  1  0  0  0  0  0  0
  124.9170  101.7840  -43.5040 H   0  0  0  1  0  1  0  0  0  0  0  0
  123.7830  104.3910  -46.7280 H   0  0  0  1  0  1  0  0  0  0  0  0
  125.7613  108.8655  -43.6775 H   0  0  0  1  0  1  0  0  0  0  0  0
  125.2889  107.2028  -43.1874 H   0  0  0  1  0  1  0  0  0  0  0  0
  124.0488  108.4983  -43.2801 H   0  0  0  1  0  1  0  0  0  0  0  0
  124.1620  107.0120  -43.1120 H   0  0  0  1  0  1  0  0  0  0  0  0
  125.7578  107.3040  -46.9248 H   0  0  0  1  0  1  0  0  0  0  0  0
  126.3494  106.4572  -45.4560 H   0  0  0  1  0  1  0  0  0  0  0  0
  126.7057  108.2020  -45.6921 H   0  0  0  1  0  1  0  0  0  0  0  0
  1  5  1  0  0  0  0
  1  8  1  0  0  0  0
  1 10  1  0  0  0  0
  1 16  1  0  0  0  0
  2  3  2  0  0  0  0
  2  5  1  0  0  0  0
  2  7  1  0  0  0  0
  3  4  1  0  0  0  0
  3 11  1  0  0  0  0
  4  6  2  0  0  0  0
  4 12  1  0  0  0  0
  5 14  1  0  0  0  0
  5 15  1  0  0  0  0
  6  9  1  0  0  0  0
  6 17  1  0  0  0  0
  7  9  2  0  0  0  0
  7 18  1  0  0  0  0
  8 19  1  0  0  0  0
  8 20  1  0  0  0  0
  8 21  1  0  0  0  0
  9 13  1  0  0  0  0
 10 23  1  0  0  0  0
 10 24  1  0  0  0  0
 10 25  1  0  0  0  0
 11 22  1  0  0  0  0
M  END
> <ConfScore>
-0.771112

$$$$
4agl


 25 25  0  0  0  0  0  0  0  0999 V2000
  124.7166  107.7584  -45.1463 N   0  3  0  1  0  4  0  0  0  0  0  0
  124.0410  105.3610  -44.8150 C   0  0  0  1  0  3  0  0  0  0  0  0
  124.3680  105.1510  -43.4700 C   0  0  0  1  0  3  0  0  0  0  0  0
  124.6850  103.8760  -43.0070 C   0  0  0  1  0  3  0  0  0  0  0  0
  123.6670  106.7390  -45.3390 C   0  0  0  1  0  4  0  0  0  0  0  0
  124.6740  102.7730  -43.8740 C   0  0  0  1  0  3  0  0  0  0  0  0
  124.0340  104.2490  -45.6830 C   0  0  0  1  0  3  0  0  0  0  0  0
  124.9699  108.1032  -43.7328 C   0  0  0  1  0  4  0  0  0  0  0  0
  124.3470  102.9640  -45.2180 C   0  0  0  1  0  3  0  0  0  0  0  0
  125.9607  107.4088  -45.8495 C   0  0  0  1  0  4  0  0  0  0  0  0
  124.4050  106.2300  -42.6310 O   0  0  0  1  0  2  0  0  0  0  0  0
  125.1380  103.6400  -40.9640 I   0  0  0  1  0  1  0  0  0  0  0  0
  124.3140  101.3570  -46.5570 I   0  0  0  1  0  1  0  0  0  0  0  0
  122.7589  107.0737  -44.8159 H   0  0  0  1  0  1  0  0  0  0  0  0
  123.4586  106.6553  -46.4164 H   0  0  0  1  0  1  0  0  0  0  0  0
  124.3692  108.5984  -45.5803 H   0  0  0  1  0  1  0  0  0  0  0  0
  124.9170  101.7840  -43.5040 H   0  0  0  1  0  1  0  0  0  0  0  0
  123.7830  104.3910  -46.7280 H   0  0  0  1  0  1  0  0  0  0  0  0
  125.7613  108.8655  -43.6775 H   0  0  0  1  0  1  0  0  0  0  0  0
  125.2889  107.2028  -43.1874 H   0  0  0  1  0  1  0  0  0  0  0  0
  124.0488  108.4983  -43.2801 H   0  0  0  1  0  1  0  0  0  0  0  0
  124.1620  107.0120  -43.1120 H   0  0  0  1  0  1  0  0  0  0  0  0
  126.4287  106.5432  -45.3594 H   0  0  0  1  0  1  0  0  0  0  0  0
  126.6522  108.2645  -45.8191 H   0  0  0  1  0  1  0  0  0  0  0  0
  125.7323  107.1591  -46.8957 H   0  0  0  1  0  1  0  0  0  0  0  0
  1  5  1  0  0  0  0
  1  8  1  0  0  0  0
  1 10  1  0  0  0  0
  1 16  1  0  0  0  0
  2  3  2  0  0  0  0
  2  5  1  0  0  0  0
  2  7  1  0  0  0  0
  3  4  1  0  0  0  0
  3 11  1  0  0  0  0
  4  6  2  0  0  0  0
  4 12  1  0  0  0  0
  5 14  1  0  0  0  0
  5 15  1  0  0  0  0
  6  9  1  0  0  0  0
  6 17  1  0  0  0  0
  7  9  2  0  0  0  0
  7 18  1  0  0  0  0
  8 19  1  0  0  0  0
  8 20  1  0  0  0  0
  8 21  1  0  0  0  0
  9 13  1  0  0  0  0
 10 23  1  0  0  0  0
 10 24  1  0  0  0  0
 10 25  1  0  0  0  0
 11 22  1  0  0  0  0
M  END
> <ConfScore>
-0.771112

$$$$
4agl


 25 25  0  0  0  0  0  0  0  0999 V2000
  122.2954  106.8234  -45.8772 N   0  3  0  1  0  4  0  0  0  0  0  0
  124.0410  105.3610  -44.8150 C   0  0  0  1  0  3  0  0  0  0  0  0
  124.3680  105.1510  -43.4700 C   0  0  0  1  0  3  0  0  0  0  0  0
  124.6850  103.8760  -43.0070 C   0  0  0  1  0  3  0  0  0  0  0  0
  123.6670  106.7390  -45.3390 C   0  0  0  1  0  4  0  0  0  0  0  0
  124.6740  102.7730  -43.8740 C   0  0  0  1  0  3  0  0  0  0  0  0
  124.0340  104.2490  -45.6830 C   0  0  0  1  0  3  0  0  0  0  0  0
  122.0601  105.9759  -47.0636 C   0  0  0  1  0  4  0  0  0  0  0  0
  124.3470  102.9640  -45.2180 C   0  0  0  1  0  3  0  0  0  0  0  0
  121.2800  106.5933  -44.8377 C   0  0  0  1  0  4  0  0  0  0  0  0
  124.4050  106.2300  -42.6310 O   0  0  0  1  0  2  0  0  0  0  0  0
  125.1380  103.6400  -40.9640 I   0  0  0  1  0  1  0  0  0  0  0  0
  124.3140  101.3570  -46.5570 I   0  0  0  1  0  1  0  0  0  0  0  0
  124.3708  107.0074  -46.1409 H   0  0  0  1  0  1  0  0  0  0  0  0
  123.7605  107.4608  -44.5135 H   0  0  0  1  0  1  0  0  0  0  0  0
  122.1777  107.7748  -46.1863 H   0  0  0  1  0  1  0  0  0  0  0  0
  124.9170  101.7840  -43.5040 H   0  0  0  1  0  1  0  0  0  0  0  0
  123.7830  104.3910  -46.7280 H   0  0  0  1  0  1  0  0  0  0  0  0
  122.8267  106.1882  -47.8237 H   0  0  0  1  0  1  0  0  0  0  0  0
  121.0639  106.1922  -47.4767 H   0  0  0  1  0  1  0  0  0  0  0  0
  122.1145  104.9161  -46.7748 H   0  0  0  1  0  1  0  0  0  0  0  0
  124.1620  107.0120  -43.1120 H   0  0  0  1  0  1  0  0  0  0  0  0
  121.2960  105.5363  -44.5363 H   0  0  0  1  0  1  0  0  0  0  0  0
  120.2850  106.8456  -45.2347 H   0  0  0  1  0  1  0  0  0  0  0  0
  121.4983  107.2269  -43.9659 H   0  0  0  1  0  1  0  0  0  0  0  0
  1  5  1  0  0  0  0
  1  8  1  0  0  0  0
  1 10  1  0  0  0  0
  1 16  1  0  0  0  0
  2  3  2  0  0  0  0
  2  5  1  0  0  0  0
  2  7  1  0  0  0  0
  3  4  1  0  0  0  0
  3 11  1  0  0  0  0
  4  6  2  0  0  0  0
  4 12  1  0  0  0  0
  5 14  1  0  0  0  0
  5 15  1  0  0  0  0
  6  9  1  0  0  0  0
  6 17  1  0  0  0  0
  7  9  2  0  0  0  0
  7 18  1  0  0  0  0
  8 19  1  0  0  0  0
  8 20  1  0  0  0  0
  8 21  1  0  0  0  0
  9 13  1  0  0  0  0
 10 23  1  0  0  0  0
 10 24  1  0  0  0  0
 10 25  1  0  0  0  0
 11 22  1  0  0  0  0
M  END
> <ConfScore>
-0.771112

$$$$
4agl


 25 25  0  0  0  0  0  0  0  0999 V2000
  124.8164  107.5285  -45.8222 N   0  3  0  1  0  4  0  0  0  0  0  0
  124.0410  105.3610  -44.8150 C   0  0  0  1  0  3  0  0  0  0  0  0
  124.3680  105.1510  -43.4700 C   0  0  0  1  0  3  0  0  0  0  0  0
  124.6850  103.8760  -43.0070 C   0  0  0  1  0  3  0  0  0  0  0  0
  123.6670  106.7390  -45.3390 C   0  0  0  1  0  4  0  0  0  0  0  0
  124.6740  102.7730  -43.8740 C   0  0  0  1  0  3  0  0  0  0  0  0
  124.0340  104.2490  -45.6830 C   0  0  0  1  0  3  0  0  0  0  0  0
  124.4416  108.7824  -46.5065 C   0  0  0  1  0  4  0  0  0  0  0  0
  124.3470  102.9640  -45.2180 C   0  0  0  1  0  3  0  0  0  0  0  0
  125.8072  107.7664  -44.7608 C   0  0  0  1  0  4  0  0  0  0  0  0
  124.4050  106.2300  -42.6310 O   0  0  0  1  0  2  0  0  0  0  0  0
  125.1380  103.6400  -40.9640 I   0  0  0  1  0  1  0  0  0  0  0  0
  124.3140  101.3570  -46.5570 I   0  0  0  1  0  1  0  0  0  0  0  0
  123.1799  107.2981  -44.5263 H   0  0  0  1  0  1  0  0  0  0  0  0
  122.9586  106.6126  -46.1718 H   0  0  0  1  0  1  0  0  0  0  0  0
  125.2720  106.9576  -46.5158 H   0  0  0  1  0  1  0  0  0  0  0  0
  124.9170  101.7840  -43.5040 H   0  0  0  1  0  1  0  0  0  0  0  0
  123.7830  104.3910  -46.7280 H   0  0  0  1  0  1  0  0  0  0  0  0
  123.7148  108.5625  -47.3027 H   0  0  0  1  0  1  0  0  0  0  0  0
  125.3390  109.2426  -46.9457 H   0  0  0  1  0  1  0  0  0  0  0  0
  123.9917  109.4764  -45.7816 H   0  0  0  1  0  1  0  0  0  0  0  0
  124.1620  107.0120  -43.1120 H   0  0  0  1  0  1  0  0  0  0  0  0
  126.0479  106.8162  -44.2634 H   0  0  0  1  0  1  0  0  0  0  0  0
  125.3929  108.4708  -44.0235 H   0  0  0  1  0  1  0  0  0  0  0  0
  126.7205  108.1919  -45.2011 H   0  0  0  1  0  1  0  0  0  0  0  0
  1  5  1  0  0  0  0
  1  8  1  0  0  0  0
  1 10  1  0  0  0  0
  1 16  1  0  0  0  0
  2  3  2  0  0  0  0
  2  5  1  0  0  0  0
  2  7  1  0  0  0  0
  3  4  1  0  0  0  0
  3 11  1  0  0  0  0
  4  6  2  0  0  0  0
  4 12  1  0  0  0  0
  5 14  1  0  0  0  0
  5 15  1  0  0  0  0
  6  9  1  0  0  0  0
  6 17  1  0  0  0  0
  7  9  2  0  0  0  0
  7 18  1  0  0  0  0
  8 19  1  0  0  0  0
  8 20  1  0  0  0  0
  8 21  1  0  0  0  0
  9 13  1  0  0  0  0
 10 23  1  0  0  0  0
 10 24  1  0  0  0  0
 10 25  1  0  0  0  0
 11 22  1  0  0  0  0
M  END
> <ConfScore>
-0.764079

$$$$
4agl


 25 25  0  0  0  0  0  0  0  0999 V2000
  124.8133  107.5195  -45.8437 N   0  3  0  1  0  4  0  0  0  0  0  0
  124.0410  105.3610  -44.8150 C   0  0  0  1  0  3  0  0  0  0  0  0
  124.3680  105.1510  -43.4700 C   0  0  0  1  0  3  0  0  0  0  0  0
  124.6850  103.8760  -43.0070 C   0  0  0  1  0  3  0  0  0  0  0  0
  123.6670  106.7390  -45.3390 C   0  0  0  1  0  4  0  0  0  0  0  0
  124.6740  102.7730  -43.8740 C   0  0  0  1  0  3  0  0  0  0  0  0
  124.0340  104.2490  -45.6830 C   0  0  0  1  0  3  0  0  0  0  0  0
  124.4647  108.8840  -46.2885 C   0  0  0  1  0  4  0  0  0  0  0  0
  124.3470  102.9640  -45.2180 C   0  0  0  1  0  3  0  0  0  0  0  0
  125.9349  107.5307  -44.8915 C   0  0  0  1  0  4  0  0  0  0  0  0
  124.4050  106.2300  -42.6310 O   0  0  0  1  0  2  0  0  0  0  0  0
  125.1380  103.6400  -40.9640 I   0  0  0  1  0  1  0  0  0  0  0  0
  124.3140  101.3570  -46.5570 I   0  0  0  1  0  1  0  0  0  0  0  0
  123.1962  107.3045  -44.5211 H   0  0  0  1  0  1  0  0  0  0  0  0
  122.9448  106.6134  -46.1599 H   0  0  0  1  0  1  0  0  0  0  0  0
  125.1392  107.0336  -46.6636 H   0  0  0  1  0  1  0  0  0  0  0  0
  124.9170  101.7840  -43.5040 H   0  0  0  1  0  1  0  0  0  0  0  0
  123.7830  104.3910  -46.7280 H   0  0  0  1  0  1  0  0  0  0  0  0
  123.6363  108.8337  -47.0108 H   0  0  0  1  0  1  0  0  0  0  0  0
  125.3400  109.3487  -46.7658 H   0  0  0  1  0  1  0  0  0  0  0  0
  124.1580  109.4862  -45.4209 H   0  0  0  1  0  1  0  0  0  0  0  0
  124.1620  107.0120  -43.1120 H   0  0  0  1  0  1  0  0  0  0  0  0
  125.6119  107.9952  -43.9491 H   0  0  0  1  0  1  0  0  0  0  0  0
  126.7708  108.1072  -45.3161 H   0  0  0  1  0  1  0  0  0  0  0  0
  126.2620  106.4987  -44.6988 H   0  0  0  1  0  1  0  0  0  0  0  0
  1  5  1  0  0  0  0
  1  8  1  0  0  0  0
  1 10  1  0  0  0  0
  1 16  1  0  0  0  0
  2  3  2  0  0  0  0
  2  5  1  0  0  0  0
  2  7  1  0  0  0  0
  3  4  1  0  0  0  0
  3 11  1  0  0  0  0
  4  6  2  0  0  0  0
  4 12  1  0  0  0  0
  5 14  1  0  0  0  0
  5 15  1  0  0  0  0
  6  9  1  0  0  0  0
  6 17  1  0  0  0  0
  7  9  2  0  0  0  0
  7 18  1  0  0  0  0
  8 19  1  0  0  0  0
  8 20  1  0  0  0  0
  8 21  1  0  0  0  0
  9 13  1  0  0  0  0
 10 23  1  0  0  0  0
 10 24  1  0  0  0  0
 10 25  1  0  0  0  0
 11 22  1  0  0  0  0
M  END
> <ConfScore>
-0.764079

$$$$
4agl


 25 25  0  0  0  0  0  0  0  0999 V2000
  124.7807  107.4545  -45.9914 N   0  3  0  1  0  4  0  0  0  0  0  0
  124.0410  105.3610  -44.8150 C   0  0  0  1  0  3  0  0  0  0  0  0
  124.3680  105.1510  -43.4700 C   0  0  0  1  0  3  0  0  0  0  0  0
  124.6850  103.8760  -43.0070 C   0  0  0  1  0  3  0  0  0  0  0  0
  123.6670  106.7390  -45.3390 C   0  0  0  1  0  4  0  0  0  0  0  0
  124.6740  102.7730  -43.8740 C   0  0  0  1  0  3  0  0  0  0  0  0
  124.0340  104.2490  -45.6830 C   0  0  0  1  0  3  0  0  0  0  0  0
  124.4041  108.7631  -46.5631 C   0  0  0  1  0  4  0  0  0  0  0  0
  124.3470  102.9640  -45.2180 C   0  0  0  1  0  3  0  0  0  0  0  0
  125.9551  107.5657  -45.1121 C   0  0  0  1  0  4  0  0  0  0  0  0
  124.4050  106.2300  -42.6310 O   0  0  0  1  0  2  0  0  0  0  0  0
  125.1380  103.6400  -40.9640 I   0  0  0  1  0  1  0  0  0  0  0  0
  124.3140  101.3570  -46.5570 I   0  0  0  1  0  1  0  0  0  0  0  0
  123.3131  107.3469  -44.4931 H   0  0  0  1  0  1  0  0  0  0  0  0
  122.8536  106.6224  -46.0712 H   0  0  0  1  0  1  0  0  0  0  0  0
  125.0601  106.8799  -46.7702 H   0  0  0  1  0  1  0  0  0  0  0  0
  124.9170  101.7840  -43.5040 H   0  0  0  1  0  1  0  0  0  0  0  0
  123.7830  104.3910  -46.7280 H   0  0  0  1  0  1  0  0  0  0  0  0
  124.0069  109.4103  -45.7670 H   0  0  0  1  0  1  0  0  0  0  0  0
  123.6350  108.6177  -47.3359 H   0  0  0  1  0  1  0  0  0  0  0  0
  125.2895  109.2364  -47.0121 H   0  0  0  1  0  1  0  0  0  0  0  0
  124.1620  107.0120  -43.1120 H   0  0  0  1  0  1  0  0  0  0  0  0
  125.7369  108.2683  -44.2952 H   0  0  0  1  0  1  0  0  0  0  0  0
  126.8143  107.9349  -45.6925 H   0  0  0  1  0  1  0  0  0  0  0  0
  126.1934  106.5777  -44.6927 H   0  0  0  1  0  1  0  0  0  0  0  0
  1  5  1  0  0  0  0
  1  8  1  0  0  0  0
  1 10  1  0  0  0  0
  1 16  1  0  0  0  0
  2  3  2  0  0  0  0
  2  5  1  0  0  0  0
  2  7  1  0  0  0  0
  3  4  1  0  0  0  0
  3 11  1  0  0  0  0
  4  6  2  0  0  0  0
  4 12  1  0  0  0  0
  5 14  1  0  0  0  0
  5 15  1  0  0  0  0
  6  9  1  0  0  0  0
  6 17  1  0  0  0  0
  7  9  2  0  0  0  0
  7 18  1  0  0  0  0
  8 19  1  0  0  0  0
  8 20  1  0  0  0  0
  8 21  1  0  0  0  0
  9 13  1  0  0  0  0
 10 23  1  0  0  0  0
 10 24  1  0  0  0  0
 10 25  1  0  0  0  0
 11 22  1  0  0  0  0
M  END
> <ConfScore>
-0.764079

$$$$
4agl


 25 25  0  0  0  0  0  0  0  0999 V2000
  124.8133  107.5195  -45.8437 N   0  3  0  1  0  4  0  0  0  0  0  0
  124.0410  105.3610  -44.8150 C   0  0  0  1  0  3  0  0  0  0  0  0
  124.3680  105.1510  -43.4700 C   0  0  0  1  0  3  0  0  0  0  0  0
  124.6850  103.8760  -43.0070 C   0  0  0  1  0  3  0  0  0  0  0  0
  123.6670  106.7390  -45.3390 C   0  0  0  1  0  4  0  0  0  0  0  0
  124.6740  102.7730  -43.8740 C   0  0  0  1  0  3  0  0  0  0  0  0
  124.0340  104.2490  -45.6830 C   0  0  0  1  0  3  0  0  0  0  0  0
  125.5705  106.8508  -46.9211 C   0  0  0  1  0  4  0  0  0  0  0  0
  124.3470  102.9640  -45.2180 C   0  0  0  1  0  3  0  0  0  0  0  0
  124.4252  108.8869  -46.2232 C   0  0  0  1  0  4  0  0  0  0  0  0
  124.4050  106.2300  -42.6310 O   0  0  0  1  0  2  0  0  0  0  0  0
  125.1380  103.6400  -40.9640 I   0  0  0  1  0  1  0  0  0  0  0  0
  124.3140  101.3570  -46.5570 I   0  0  0  1  0  1  0  0  0  0  0  0
  123.1962  107.3045  -44.5211 H   0  0  0  1  0  1  0  0  0  0  0  0
  122.9448  106.6134  -46.1599 H   0  0  0  1  0  1  0  0  0  0  0  0
  125.4504  107.6079  -45.0685 H   0  0  0  1  0  1  0  0  0  0  0  0
  124.9170  101.7840  -43.5040 H   0  0  0  1  0  1  0  0  0  0  0  0
  123.7830  104.3910  -46.7280 H   0  0  0  1  0  1  0  0  0  0  0  0
  125.9831  105.9027  -46.5452 H   0  0  0  1  0  1  0  0  0  0  0  0
  126.3922  107.5035  -47.2510 H   0  0  0  1  0  1  0  0  0  0  0  0
  124.9008  106.6480  -47.7695 H   0  0  0  1  0  1  0  0  0  0  0  0
  124.1620  107.0120  -43.1120 H   0  0  0  1  0  1  0  0  0  0  0  0
  123.8498  109.3454  -45.4064 H   0  0  0  1  0  1  0  0  0  0  0  0
  123.8064  108.8535  -47.1328 H   0  0  0  1  0  1  0  0  0  0  0  0
  125.3282  109.4838  -46.4161 H   0  0  0  1  0  1  0  0  0  0  0  0
  1  5  1  0  0  0  0
  1  8  1  0  0  0  0
  1 10  1  0  0  0  0
  1 16  1  0  0  0  0
  2  3  2  0  0  0  0
  2  5  1  0  0  0  0
  2  7  1  0  0  0  0
  3  4  1  0  0  0  0
  3 11  1  0  0  0  0
  4  6  2  0  0  0  0
  4 12  1  0  0  0  0
  5 14  1  0  0  0  0
  5 15  1  0  0  0  0
  6  9  1  0  0  0  0
  6 17  1  0  0  0  0
  7  9  2  0  0  0  0
  7 18  1  0  0  0  0
  8 19  1  0  0  0  0
  8 20  1  0  0  0  0
  8 21  1  0  0  0  0
  9 13  1  0  0  0  0
 10 23  1  0  0  0  0
 10 24  1  0  0  0  0
 10 25  1  0  0  0  0
 11 22  1  0  0  0  0
M  END
> <ConfScore>
-0.758859

$$$$
4agl


 25 25  0  0  0  0  0  0  0  0999 V2000
  124.8233  107.5551  -45.7571 N   0  3  0  1  0  4  0  0  0  0  0  0
  124.0410  105.3610  -44.8150 C   0  0  0  1  0  3  0  0  0  0  0  0
  124.3680  105.1510  -43.4700 C   0  0  0  1  0  3  0  0  0  0  0  0
  124.6850  103.8760  -43.0070 C   0  0  0  1  0  3  0  0  0  0  0  0
  123.6670  106.7390  -45.3390 C   0  0  0  1  0  4  0  0  0  0  0  0
  124.6740  102.7730  -43.8740 C   0  0  0  1  0  3  0  0  0  0  0  0
  124.0340  104.2490  -45.6830 C   0  0  0  1  0  3  0  0  0  0  0  0
  125.6137  106.9630  -46.8552 C   0  0  0  1  0  4  0  0  0  0  0  0
  124.3470  102.9640  -45.2180 C   0  0  0  1  0  3  0  0  0  0  0  0
  124.4394  108.9439  -46.0545 C   0  0  0  1  0  4  0  0  0  0  0  0
  124.4050  106.2300  -42.6310 O   0  0  0  1  0  2  0  0  0  0  0  0
  125.1380  103.6400  -40.9640 I   0  0  0  1  0  1  0  0  0  0  0  0
  124.3140  101.3570  -46.5570 I   0  0  0  1  0  1  0  0  0  0  0  0
  123.1319  107.2785  -44.5435 H   0  0  0  1  0  1  0  0  0  0  0  0
  123.0012  106.6112  -46.2060 H   0  0  0  1  0  1  0  0  0  0  0  0
  125.4379  107.5928  -44.9599 H   0  0  0  1  0  1  0  0  0  0  0  0
  124.9170  101.7840  -43.5040 H   0  0  0  1  0  1  0  0  0  0  0  0
  123.7830  104.3910  -46.7280 H   0  0  0  1  0  1  0  0  0  0  0  0
  126.4521  107.6303  -47.1048 H   0  0  0  1  0  1  0  0  0  0  0  0
  124.9726  106.8327  -47.7394 H   0  0  0  1  0  1  0  0  0  0  0  0
  126.0056  105.9849  -46.5399 H   0  0  0  1  0  1  0  0  0  0  0  0
  124.1620  107.0120  -43.1120 H   0  0  0  1  0  1  0  0  0  0  0  0
  123.9854  109.3984  -45.1624 H   0  0  0  1  0  1  0  0  0  0  0  0
  123.7125  108.9547  -46.8808 H   0  0  0  1  0  1  0  0  0  0  0  0
  125.3322  109.5166  -46.3442 H   0  0  0  1  0  1  0  0  0  0  0  0
  1  5  1  0  0  0  0
  1  8  1  0  0  0  0
  1 10  1  0  0  0  0
  1 16  1  0  0  0  0
  2  3  2  0  0  0  0
  2  5  1  0  0  0  0
  2  7  1  0  0  0  0
  3  4  1  0  0  0  0
  3 11  1  0  0  0  0
  4  6  2  0  0  0  0
  4 12  1  0  0  0  0
  5 14  1  0  0  0  0
  5 15  1  0  0  0  0
  6  9  1  0  0  0  0
  6 17  1  0  0  0  0
  7  9  2  0  0  0  0
  7 18  1  0  0  0  0
  8 19  1  0  0  0  0
  8 20  1  0  0  0  0
  8 21  1  0  0  0  0
  9 13  1  0  0  0  0
 10 23  1  0  0  0  0
 10 24  1  0  0  0  0
 10 25  1  0  0  0  0
 11 22  1  0  0  0  0
M  END
> <ConfScore>
-0.758859

$$$$
4agl


 25 25  0  0  0  0  0  0  0  0999 V2000
  124.8133  107.5195  -45.8437 N   0  3  0  1  0  4  0  0  0  0  0  0
  124.0410  105.3610  -44.8150 C   0  0  0  1  0  3  0  0  0  0  0  0
  124.3680  105.1510  -43.4700 C   0  0  0  1  0  3  0  0  0  0  0  0
  124.6850  103.8760  -43.0070 C   0  0  0  1  0  3  0  0  0  0  0  0
  123.6670  106.7390  -45.3390 C   0  0  0  1  0  4  0  0  0  0  0  0
  124.6740  102.7730  -43.8740 C   0  0  0  1  0  3  0  0  0  0  0  0
  124.0340  104.2490  -45.6830 C   0  0  0  1  0  3  0  0  0  0  0  0
  125.5184  106.8902  -46.9786 C   0  0  0  1  0  4  0  0  0  0  0  0
  124.3470  102.9640  -45.2180 C   0  0  0  1  0  3  0  0  0  0  0  0
  124.4441  108.9123  -46.1411 C   0  0  0  1  0  4  0  0  0  0  0  0
  124.4050  106.2300  -42.6310 O   0  0  0  1  0  2  0  0  0  0  0  0
  125.1380  103.6400  -40.9640 I   0  0  0  1  0  1  0  0  0  0  0  0
  124.3140  101.3570  -46.5570 I   0  0  0  1  0  1  0  0  0  0  0  0
  123.1962  107.3045  -44.5211 H   0  0  0  1  0  1  0  0  0  0  0  0
  122.9448  106.6134  -46.1599 H   0  0  0  1  0  1  0  0  0  0  0  0
  125.4779  107.5551  -45.0876 H   0  0  0  1  0  1  0  0  0  0  0  0
  124.9170  101.7840  -43.5040 H   0  0  0  1  0  1  0  0  0  0  0  0
  123.7830  104.3910  -46.7280 H   0  0  0  1  0  1  0  0  0  0  0  0
  125.7931  105.8584  -46.7129 H   0  0  0  1  0  1  0  0  0  0  0  0
  126.4279  107.4644  -47.2089 H   0  0  0  1  0  1  0  0  0  0  0  0
  124.8599  106.8785  -47.8594 H   0  0  0  1  0  1  0  0  0  0  0  0
  124.1620  107.0120  -43.1120 H   0  0  0  1  0  1  0  0  0  0  0  0
  125.3292  109.4591  -46.4959 H   0  0  0  1  0  1  0  0  0  0  0  0
  124.0587  109.3924  -45.2288 H   0  0  0  1  0  1  0  0  0  0  0  0
  123.6673  108.9270  -46.9192 H   0  0  0  1  0  1  0  0  0  0  0  0
  1  5  1  0  0  0  0
  1  8  1  0  0  0  0
  1 10  1  0  0  0  0
  1 16  1  0  0  0  0
  2  3  2  0  0  0  0
  2  5  1  0  0  0  0
  2  7  1  0  0  0  0
  3  4  1  0  0  0  0
  3 11  1  0  0  0  0
  4  6  2  0  0  0  0
  4 12  1  0  0  0  0
  5 14  1  0  0  0  0
  5 15  1  0  0  0  0
  6  9  1  0  0  0  0
  6 17  1  0  0  0  0
  7  9  2  0  0  0  0
  7 18  1  0  0  0  0
  8 19  1  0  0  0  0
  8 20  1  0  0  0  0
  8 21  1  0  0  0  0
  9 13  1  0  0  0  0
 10 23  1  0  0  0  0
 10 24  1  0  0  0  0
 10 25  1  0  0  0  0
 11 22  1  0  0  0  0
M  END
> <ConfScore>
-0.758859

$$$$
4agl


 25 25  0  0  0  0  0  0  0  0999 V2000
  122.2277  107.0487  -45.2363 N   0  3  0  1  0  4  0  0  0  0  0  0
  124.0410  105.3610  -44.8150 C   0  0  0  1  0  3  0  0  0  0  0  0
  124.3680  105.1510  -43.4700 C   0  0  0  1  0  3  0  0  0  0  0  0
  124.6850  103.8760  -43.0070 C   0  0  0  1  0  3  0  0  0  0  0  0
  123.6670  106.7390  -45.3390 C   0  0  0  1  0  4  0  0  0  0  0  0
  124.6740  102.7730  -43.8740 C   0  0  0  1  0  3  0  0  0  0  0  0
  124.0340  104.2490  -45.6830 C   0  0  0  1  0  3  0  0  0  0  0  0
  121.3566  106.1228  -45.9881 C   0  0  0  1  0  4  0  0  0  0  0  0
  124.3470  102.9640  -45.2180 C   0  0  0  1  0  3  0  0  0  0  0  0
  121.7917  107.1868  -43.8380 C   0  0  0  1  0  4  0  0  0  0  0  0
  124.4050  106.2300  -42.6310 O   0  0  0  1  0  2  0  0  0  0  0  0
  125.1380  103.6400  -40.9640 I   0  0  0  1  0  1  0  0  0  0  0  0
  124.3140  101.3570  -46.5570 I   0  0  0  1  0  1  0  0  0  0  0  0
  123.9592  106.7979  -46.3980 H   0  0  0  1  0  1  0  0  0  0  0  0
  124.2257  107.4922  -44.7629 H   0  0  0  1  0  1  0  0  0  0  0  0
  122.1083  107.9530  -45.6637 H   0  0  0  1  0  1  0  0  0  0  0  0
  124.9170  101.7840  -43.5040 H   0  0  0  1  0  1  0  0  0  0  0  0
  123.7830  104.3910  -46.7280 H   0  0  0  1  0  1  0  0  0  0  0  0
  121.6079  106.1705  -47.0582 H   0  0  0  1  0  1  0  0  0  0  0  0
  120.3049  106.4114  -45.8449 H   0  0  0  1  0  1  0  0  0  0  0  0
  121.5079  105.0969  -45.6218 H   0  0  0  1  0  1  0  0  0  0  0  0
  124.1620  107.0120  -43.1120 H   0  0  0  1  0  1  0  0  0  0  0  0
  122.4721  107.8674  -43.3067 H   0  0  0  1  0  1  0  0  0  0  0  0
  121.8063  106.2003  -43.3501 H   0  0  0  1  0  1  0  0  0  0  0  0
  120.7707  107.5939  -43.8112 H   0  0  0  1  0  1  0  0  0  0  0  0
  1  5  1  0  0  0  0
  1  8  1  0  0  0  0
  1 10  1  0  0  0  0
  1 16  1  0  0  0  0
  2  3  2  0  0  0  0
  2  5  1  0  0  0  0
  2  7  1  0  0  0  0
  3  4  1  0  0  0  0
  3 11  1  0  0  0  0
  4  6  2  0  0  0  0
  4 12  1  0  0  0  0
  5 14  1  0  0  0  0
  5 15  1  0  0  0  0
  6  9  1  0  0  0  0
  6 17  1  0  0  0  0
  7  9  2  0  0  0  0
  7 18  1  0  0  0  0
  8 19  1  0  0  0  0
  8 20  1  0  0  0  0
  8 21  1  0  0  0  0
  9 13  1  0  0  0  0
 10 23  1  0  0  0  0
 10 24  1  0  0  0  0
 10 25  1  0  0  0  0
 11 22  1  0  0  0  0
M  END
> <ConfScore>
-0.753552

$$$$
4agl


 25 25  0  0  0  0  0  0  0  0999 V2000
  122.2399  107.0763  -45.1725 N   0  3  0  1  0  4  0  0  0  0  0  0
  124.0410  105.3610  -44.8150 C   0  0  0  1  0  3  0  0  0  0  0  0
  124.3680  105.1510  -43.4700 C   0  0  0  1  0  3  0  0  0  0  0  0
  124.6850  103.8760  -43.0070 C   0  0  0  1  0  3  0  0  0  0  0  0
  123.6670  106.7390  -45.3390 C   0  0  0  1  0  4  0  0  0  0  0  0
  124.6740  102.7730  -43.8740 C   0  0  0  1  0  3  0  0  0  0  0  0
  124.0340  104.2490  -45.6830 C   0  0  0  1  0  3  0  0  0  0  0  0
  121.3250  106.2396  -45.9750 C   0  0  0  1  0  4  0  0  0  0  0  0
  124.3470  102.9640  -45.2180 C   0  0  0  1  0  3  0  0  0  0  0  0
  121.8424  107.1081  -43.7563 C   0  0  0  1  0  4  0  0  0  0  0  0
  124.4050  106.2300  -42.6310 O   0  0  0  1  0  2  0  0  0  0  0  0
  125.1380  103.6400  -40.9640 I   0  0  0  1  0  1  0  0  0  0  0  0
  124.3140  101.3570  -46.5570 I   0  0  0  1  0  1  0  0  0  0  0  0
  123.9096  106.7793  -46.4113 H   0  0  0  1  0  1  0  0  0  0  0  0
  124.2657  107.4890  -44.8001 H   0  0  0  1  0  1  0  0  0  0  0  0
  122.1355  108.0160  -45.5199 H   0  0  0  1  0  1  0  0  0  0  0  0
  124.9170  101.7840  -43.5040 H   0  0  0  1  0  1  0  0  0  0  0  0
  123.7830  104.3910  -46.7280 H   0  0  0  1  0  1  0  0  0  0  0  0
  120.2865  106.5544  -45.7940 H   0  0  0  1  0  1  0  0  0  0  0  0
  121.4444  105.1850  -45.6860 H   0  0  0  1  0  1  0  0  0  0  0  0
  121.5621  106.3557  -47.0426 H   0  0  0  1  0  1  0  0  0  0  0  0
  124.1620  107.0120  -43.1120 H   0  0  0  1  0  1  0  0  0  0  0  0
  121.8569  106.0876  -43.3479 H   0  0  0  1  0  1  0  0  0  0  0  0
  120.8264  107.5225  -43.6697 H   0  0  0  1  0  1  0  0  0  0  0  0
  122.5448  107.7390  -43.1928 H   0  0  0  1  0  1  0  0  0  0  0  0
  1  5  1  0  0  0  0
  1  8  1  0  0  0  0
  1 10  1  0  0  0  0
  1 16  1  0  0  0  0
  2  3  2  0  0  0  0
  2  5  1  0  0  0  0
  2  7  1  0  0  0  0
  3  4  1  0  0  0  0
  3 11  1  0  0  0  0
  4  6  2  0  0  0  0
  4 12  1  0  0  0  0
  5 14  1  0  0  0  0
  5 15  1  0  0  0  0
  6  9  1  0  0  0  0
  6 17  1  0  0  0  0
  7  9  2  0  0  0  0
  7 18  1  0  0  0  0
  8 19  1  0  0  0  0
  8 20  1  0  0  0  0
  8 21  1  0  0  0  0
  9 13  1  0  0  0  0
 10 23  1  0  0  0  0
 10 24  1  0  0  0  0
 10 25  1  0  0  0  0
 11 22  1  0  0  0  0
M  END
> <ConfScore>
-0.753552

$$$$
4agl


 25 25  0  0  0  0  0  0  0  0999 V2000
  122.2399  107.0763  -45.1725 N   0  3  0  1  0  4  0  0  0  0  0  0
  124.0410  105.3610  -44.8150 C   0  0  0  1  0  3  0  0  0  0  0  0
  124.3680  105.1510  -43.4700 C   0  0  0  1  0  3  0  0  0  0  0  0
  124.6850  103.8760  -43.0070 C   0  0  0  1  0  3  0  0  0  0  0  0
  123.6670  106.7390  -45.3390 C   0  0  0  1  0  4  0  0  0  0  0  0
  124.6740  102.7730  -43.8740 C   0  0  0  1  0  3  0  0  0  0  0  0
  124.0340  104.2490  -45.6830 C   0  0  0  1  0  3  0  0  0  0  0  0
  121.3250  106.2396  -45.9750 C   0  0  0  1  0  4  0  0  0  0  0  0
  124.3470  102.9640  -45.2180 C   0  0  0  1  0  3  0  0  0  0  0  0
  121.8424  107.1081  -43.7563 C   0  0  0  1  0  4  0  0  0  0  0  0
  124.4050  106.2300  -42.6310 O   0  0  0  1  0  2  0  0  0  0  0  0
  125.1380  103.6400  -40.9640 I   0  0  0  1  0  1  0  0  0  0  0  0
  124.3140  101.3570  -46.5570 I   0  0  0  1  0  1  0  0  0  0  0  0
  123.9096  106.7793  -46.4113 H   0  0  0  1  0  1  0  0  0  0  0  0
  124.2657  107.4890  -44.8001 H   0  0  0  1  0  1  0  0  0  0  0  0
  122.1355  108.0160  -45.5199 H   0  0  0  1  0  1  0  0  0  0  0  0
  124.9170  101.7840  -43.5040 H   0  0  0  1  0  1  0  0  0  0  0  0
  123.7830  104.3910  -46.7280 H   0  0  0  1  0  1  0  0  0  0  0  0
  120.2865  106.5544  -45.7940 H   0  0  0  1  0  1  0  0  0  0  0  0
  121.4444  105.1850  -45.6860 H   0  0  0  1  0  1  0  0  0  0  0  0
  121.5621  106.3557  -47.0426 H   0  0  0  1  0  1  0  0  0  0  0  0
  124.1620  107.0120  -43.1120 H   0  0  0  1  0  1  0  0  0  0  0  0
  122.4499  107.8516  -43.2210 H   0  0  0  1  0  1  0  0  0  0  0  0
  122.0007  106.1152  -43.3085 H   0  0  0  1  0  1  0  0  0  0  0  0
  120.7795  107.3791  -43.6803 H   0  0  0  1  0  1  0  0  0  0  0  0
  1  5  1  0  0  0  0
  1  8  1  0  0  0  0
  1 10  1  0  0  0  0
  1 16  1  0  0  0  0
  2  3  2  0  0  0  0
  2  5  1  0  0  0  0
  2  7  1  0  0  0  0
  3  4  1  0  0  0  0
  3 11  1  0  0  0  0
  4  6  2  0  0  0  0
  4 12  1  0  0  0  0
  5 14  1  0  0  0  0
  5 15  1  0  0  0  0
  6  9  1  0  0  0  0
  6 17  1  0  0  0  0
  7  9  2  0  0  0  0
  7 18  1  0  0  0  0
  8 19  1  0  0  0  0
  8 20  1  0  0  0  0
  8 21  1  0  0  0  0
  9 13  1  0  0  0  0
 10 23  1  0  0  0  0
 10 24  1  0  0  0  0
 10 25  1  0  0  0  0
 11 22  1  0  0  0  0
M  END
> <ConfScore>
-0.753552

$$$$
4agl


 25 25  0  0  0  0  0  0  0  0999 V2000
  124.3207  107.8506  -44.6214 N   0  3  0  1  0  4  0  0  0  0  0  0
  124.0410  105.3610  -44.8150 C   0  0  0  1  0  3  0  0  0  0  0  0
  124.3680  105.1510  -43.4700 C   0  0  0  1  0  3  0  0  0  0  0  0
  124.6850  103.8760  -43.0070 C   0  0  0  1  0  3  0  0  0  0  0  0
  123.6670  106.7390  -45.3390 C   0  0  0  1  0  4  0  0  0  0  0  0
  124.6740  102.7730  -43.8740 C   0  0  0  1  0  3  0  0  0  0  0  0
  124.0340  104.2490  -45.6830 C   0  0  0  1  0  3  0  0  0  0  0  0
  125.7856  107.7098  -44.4977 C   0  0  0  1  0  4  0  0  0  0  0  0
  124.3470  102.9640  -45.2180 C   0  0  0  1  0  3  0  0  0  0  0  0
  123.9479  109.1608  -45.1772 C   0  0  0  1  0  4  0  0  0  0  0  0
  124.4050  106.2300  -42.6310 O   0  0  0  1  0  2  0  0  0  0  0  0
  125.1380  103.6400  -40.9640 I   0  0  0  1  0  1  0  0  0  0  0  0
  124.3140  101.3570  -46.5570 I   0  0  0  1  0  1  0  0  0  0  0  0
  122.5775  106.8605  -45.2470 H   0  0  0  1  0  1  0  0  0  0  0  0
  123.9530  106.7956  -46.4003 H   0  0  0  1  0  1  0  0  0  0  0  0
  123.9578  107.8248  -43.6821 H   0  0  0  1  0  1  0  0  0  0  0  0
  124.9170  101.7840  -43.5040 H   0  0  0  1  0  1  0  0  0  0  0  0
  123.7830  104.3910  -46.7280 H   0  0  0  1  0  1  0  0  0  0  0  0
  126.0197  106.7958  -43.9317 H   0  0  0  1  0  1  0  0  0  0  0  0
  126.1945  108.5836  -43.9693 H   0  0  0  1  0  1  0  0  0  0  0  0
  126.2344  107.6449  -45.4997 H   0  0  0  1  0  1  0  0  0  0  0  0
  124.1620  107.0120  -43.1120 H   0  0  0  1  0  1  0  0  0  0  0  0
  122.8544  109.2222  -45.2711 H   0  0  0  1  0  1  0  0  0  0  0  0
  124.4078  109.2825  -46.1697 H   0  0  0  1  0  1  0  0  0  0  0  0
  124.3041  109.9573  -44.5081 H   0  0  0  1  0  1  0  0  0  0  0  0
  1  5  1  0  0  0  0
  1  8  1  0  0  0  0
  1 10  1  0  0  0  0
  1 16  1  0  0  0  0
  2  3  2  0  0  0  0
  2  5  1  0  0  0  0
  2  7  1  0  0  0  0
  3  4  1  0  0  0  0
  3 11  1  0  0  0  0
  4  6  2  0  0  0  0
  4 12  1  0  0  0  0
  5 14  1  0  0  0  0
  5 15  1  0  0  0  0
  6  9  1  0  0  0  0
  6 17  1  0  0  0  0
  7  9  2  0  0  0  0
  7 18  1  0  0  0  0
  8 19  1  0  0  0  0
  8 20  1  0  0  0  0
  8 21  1  0  0  0  0
  9 13  1  0  0  0  0
 10 23  1  0  0  0  0
 10 24  1  0  0  0  0
 10 25  1  0  0  0  0
 11 22  1  0  0  0  0
M  END
> <ConfScore>
-0.71925

$$$$
4agl


 25 25  0  0  0  0  0  0  0  0999 V2000
  124.3207  107.8506  -44.6214 N   0  3  0  1  0  4  0  0  0  0  0  0
  124.0410  105.3610  -44.8150 C   0  0  0  1  0  3  0  0  0  0  0  0
  124.3680  105.1510  -43.4700 C   0  0  0  1  0  3  0  0  0  0  0  0
  124.6850  103.8760  -43.0070 C   0  0  0  1  0  3  0  0  0  0  0  0
  123.6670  106.7390  -45.3390 C   0  0  0  1  0  4  0  0  0  0  0  0
  124.6740  102.7730  -43.8740 C   0  0  0  1  0  3  0  0  0  0  0  0
  124.0340  104.2490  -45.6830 C   0  0  0  1  0  3  0  0  0  0  0  0
  125.7945  107.8460  -44.7168 C   0  0  0  1  0  4  0  0  0  0  0  0
  124.3470  102.9640  -45.2180 C   0  0  0  1  0  3  0  0  0  0  0  0
  123.7580  109.1568  -44.9980 C   0  0  0  1  0  4  0  0  0  0  0  0
  124.4050  106.2300  -42.6310 O   0  0  0  1  0  2  0  0  0  0  0  0
  125.1380  103.6400  -40.9640 I   0  0  0  1  0  1  0  0  0  0  0  0
  124.3140  101.3570  -46.5570 I   0  0  0  1  0  1  0  0  0  0  0  0
  122.5775  106.8605  -45.2470 H   0  0  0  1  0  1  0  0  0  0  0  0
  123.9530  106.7956  -46.4003 H   0  0  0  1  0  1  0  0  0  0  0  0
  124.1039  107.7161  -43.6469 H   0  0  0  1  0  1  0  0  0  0  0  0
  124.9170  101.7840  -43.5040 H   0  0  0  1  0  1  0  0  0  0  0  0
  123.7830  104.3910  -46.7280 H   0  0  0  1  0  1  0  0  0  0  0  0
  126.1786  106.8613  -44.4115 H   0  0  0  1  0  1  0  0  0  0  0  0
  126.2070  108.6220  -44.0554 H   0  0  0  1  0  1  0  0  0  0  0  0
  126.0962  108.0511  -45.7543 H   0  0  0  1  0  1  0  0  0  0  0  0
  124.1620  107.0120  -43.1120 H   0  0  0  1  0  1  0  0  0  0  0  0
  124.2605  109.9512  -44.4281 H   0  0  0  1  0  1  0  0  0  0  0  0
  122.6806  109.1707  -44.7732 H   0  0  0  1  0  1  0  0  0  0  0  0
  123.9101  109.3246  -46.0739 H   0  0  0  1  0  1  0  0  0  0  0  0
  1  5  1  0  0  0  0
  1  8  1  0  0  0  0
  1 10  1  0  0  0  0
  1 16  1  0  0  0  0
  2  3  2  0  0  0  0
  2  5  1  0  0  0  0
  2  7  1  0  0  0  0
  3  4  1  0  0  0  0
  3 11  1  0  0  0  0
  4  6  2  0  0  0  0
  4 12  1  0  0  0  0
  5 14  1  0  0  0  0
  5 15  1  0  0  0  0
  6  9  1  0  0  0  0
  6 17  1  0  0  0  0
  7  9  2  0  0  0  0
  7 18  1  0  0  0  0
  8 19  1  0  0  0  0
  8 20  1  0  0  0  0
  8 21  1  0  0  0  0
  9 13  1  0  0  0  0
 10 23  1  0  0  0  0
 10 24  1  0  0  0  0
 10 25  1  0  0  0  0
 11 22  1  0  0  0  0
M  END
> <ConfScore>
-0.71925

$$$$
4agl


 25 25  0  0  0  0  0  0  0  0999 V2000
  124.3386  107.8497  -44.6366 N   0  3  0  1  0  4  0  0  0  0  0  0
  124.0410  105.3610  -44.8150 C   0  0  0  1  0  3  0  0  0  0  0  0
  124.3680  105.1510  -43.4700 C   0  0  0  1  0  3  0  0  0  0  0  0
  124.6850  103.8760  -43.0070 C   0  0  0  1  0  3  0  0  0  0  0  0
  123.6670  106.7390  -45.3390 C   0  0  0  1  0  4  0  0  0  0  0  0
  124.6740  102.7730  -43.8740 C   0  0  0  1  0  3  0  0  0  0  0  0
  124.0340  104.2490  -45.6830 C   0  0  0  1  0  3  0  0  0  0  0  0
  125.8090  107.8490  -44.7747 C   0  0  0  1  0  4  0  0  0  0  0  0
  124.3470  102.9640  -45.2180 C   0  0  0  1  0  3  0  0  0  0  0  0
  123.7622  109.1558  -44.9921 C   0  0  0  1  0  4  0  0  0  0  0  0
  124.4050  106.2300  -42.6310 O   0  0  0  1  0  2  0  0  0  0  0  0
  125.1380  103.6400  -40.9640 I   0  0  0  1  0  1  0  0  0  0  0  0
  124.3140  101.3570  -46.5570 I   0  0  0  1  0  1  0  0  0  0  0  0
  122.5798  106.8675  -45.2303 H   0  0  0  1  0  1  0  0  0  0  0  0
  123.9365  106.7894  -46.4049 H   0  0  0  1  0  1  0  0  0  0  0  0
  124.1504  107.7112  -43.6568 H   0  0  0  1  0  1  0  0  0  0  0  0
  124.9170  101.7840  -43.5040 H   0  0  0  1  0  1  0  0  0  0  0  0
  123.7830  104.3910  -46.7280 H   0  0  0  1  0  1  0  0  0  0  0  0
  126.2293  108.7042  -44.2247 H   0  0  0  1  0  1  0  0  0  0  0  0
  126.0772  107.9292  -45.8384 H   0  0  0  1  0  1  0  0  0  0  0  0
  126.2163  106.9136  -44.3639 H   0  0  0  1  0  1  0  0  0  0  0  0
  124.1620  107.0120  -43.1120 H   0  0  0  1  0  1  0  0  0  0  0  0
  122.6929  109.1668  -44.7374 H   0  0  0  1  0  1  0  0  0  0  0  0
  123.8829  109.3282  -46.0724 H   0  0  0  1  0  1  0  0  0  0  0  0
  124.2806  109.9489  -44.4342 H   0  0  0  1  0  1  0  0  0  0  0  0
  1  5  1  0  0  0  0
  1  8  1  0  0  0  0
  1 10  1  0  0  0  0
  1 16  1  0  0  0  0
  2  3  2  0  0  0  0
  2  5  1  0  0  0  0
  2  7  1  0  0  0  0
  3  4  1  0  0  0  0
  3 11  1  0  0  0  0
  4  6  2  0  0  0  0
  4 12  1  0  0  0  0
  5 14  1  0  0  0  0
  5 15  1  0  0  0  0
  6  9  1  0  0  0  0
  6 17  1  0  0  0  0
  7  9  2  0  0  0  0
  7 18  1  0  0  0  0
  8 19  1  0  0  0  0
  8 20  1  0  0  0  0
  8 21  1  0  0  0  0
  9 13  1  0  0  0  0
 10 23  1  0  0  0  0
 10 24  1  0  0  0  0
 10 25  1  0  0  0  0
 11 22  1  0  0  0  0
M  END
> <ConfScore>
-0.71925

$$$$
4agl


 25 25  0  0  0  0  0  0  0  0999 V2000
  124.3737  107.8473  -44.6679 N   0  3  0  1  0  4  0  0  0  0  0  0
  124.0410  105.3610  -44.8150 C   0  0  0  1  0  3  0  0  0  0  0  0
  124.3680  105.1510  -43.4700 C   0  0  0  1  0  3  0  0  0  0  0  0
  124.6850  103.8760  -43.0070 C   0  0  0  1  0  3  0  0  0  0  0  0
  123.6670  106.7390  -45.3390 C   0  0  0  1  0  4  0  0  0  0  0  0
  124.6740  102.7730  -43.8740 C   0  0  0  1  0  3  0  0  0  0  0  0
  124.0340  104.2490  -45.6830 C   0  0  0  1  0  3  0  0  0  0  0  0
  125.8459  107.7550  -44.7399 C   0  0  0  1  0  4  0  0  0  0  0  0
  124.3470  102.9640  -45.2180 C   0  0  0  1  0  3  0  0  0  0  0  0
  123.8911  109.1621  -45.1184 C   0  0  0  1  0  4  0  0  0  0  0  0
  124.4050  106.2300  -42.6310 O   0  0  0  1  0  2  0  0  0  0  0  0
  125.1380  103.6400  -40.9640 I   0  0  0  1  0  1  0  0  0  0  0  0
  124.3140  101.3570  -46.5570 I   0  0  0  1  0  1  0  0  0  0  0  0
  122.5854  106.8816  -45.1972 H   0  0  0  1  0  1  0  0  0  0  0  0
  123.9032  106.7772  -46.4133 H   0  0  0  1  0  1  0  0  0  0  0  0
  124.1371  107.7751  -43.6915 H   0  0  0  1  0  1  0  0  0  0  0  0
  124.9170  101.7840  -43.5040 H   0  0  0  1  0  1  0  0  0  0  0  0
  123.7830  104.3910  -46.7280 H   0  0  0  1  0  1  0  0  0  0  0  0
  126.2931  108.6144  -44.2184 H   0  0  0  1  0  1  0  0  0  0  0  0
  126.1623  107.7598  -45.7934 H   0  0  0  1  0  1  0  0  0  0  0  0
  126.1795  106.8225  -44.2617 H   0  0  0  1  0  1  0  0  0  0  0  0
  124.1620  107.0120  -43.1120 H   0  0  0  1  0  1  0  0  0  0  0  0
  124.3045  109.9471  -44.4694 H   0  0  0  1  0  1  0  0  0  0  0  0
  122.7919  109.1865  -45.0676 H   0  0  0  1  0  1  0  0  0  0  0  0
  124.2140  109.3352  -46.1551 H   0  0  0  1  0  1  0  0  0  0  0  0
  1  5  1  0  0  0  0
  1  8  1  0  0  0  0
  1 10  1  0  0  0  0
  1 16  1  0  0  0  0
  2  3  2  0  0  0  0
  2  5  1  0  0  0  0
  2  7  1  0  0  0  0
  3  4  1  0  0  0  0
  3 11  1  0  0  0  0
  4  6  2  0  0  0  0
  4 12  1  0  0  0  0
  5 14  1  0  0  0  0
  5 15  1  0  0  0  0
  6  9  1  0  0  0  0
  6 17  1  0  0  0  0
  7  9  2  0  0  0  0
  7 18  1  0  0  0  0
  8 19  1  0  0  0  0
  8 20  1  0  0  0  0
  8 21  1  0  0  0  0
  9 13  1  0  0  0  0
 10 23  1  0  0  0  0
 10 24  1  0  0  0  0
 10 25  1  0  0  0  0
 11 22  1  0  0  0  0
M  END
> <ConfScore>
-0.71925

$$$$
4agl


 25 25  0  0  0  0  0  0  0  0999 V2000
  124.3386  107.8497  -44.6366 N   0  3  0  1  0  4  0  0  0  0  0  0
  124.0410  105.3610  -44.8150 C   0  0  0  1  0  3  0  0  0  0  0  0
  124.3680  105.1510  -43.4700 C   0  0  0  1  0  3  0  0  0  0  0  0
  124.6850  103.8760  -43.0070 C   0  0  0  1  0  3  0  0  0  0  0  0
  123.6670  106.7390  -45.3390 C   0  0  0  1  0  4  0  0  0  0  0  0
  124.6740  102.7730  -43.8740 C   0  0  0  1  0  3  0  0  0  0  0  0
  124.0340  104.2490  -45.6830 C   0  0  0  1  0  3  0  0  0  0  0  0
  125.7986  107.6781  -44.4945 C   0  0  0  1  0  4  0  0  0  0  0  0
  124.3470  102.9640  -45.2180 C   0  0  0  1  0  3  0  0  0  0  0  0
  124.0016  109.1566  -45.2223 C   0  0  0  1  0  4  0  0  0  0  0  0
  124.4050  106.2300  -42.6310 O   0  0  0  1  0  2  0  0  0  0  0  0
  125.1380  103.6400  -40.9640 I   0  0  0  1  0  1  0  0  0  0  0  0
  124.3140  101.3570  -46.5570 I   0  0  0  1  0  1  0  0  0  0  0  0
  122.5798  106.8675  -45.2303 H   0  0  0  1  0  1  0  0  0  0  0  0
  123.9365  106.7894  -46.4049 H   0  0  0  1  0  1  0  0  0  0  0  0
  123.9656  107.8509  -43.7009 H   0  0  0  1  0  1  0  0  0  0  0  0
  124.9170  101.7840  -43.5040 H   0  0  0  1  0  1  0  0  0  0  0  0
  123.7830  104.3910  -46.7280 H   0  0  0  1  0  1  0  0  0  0  0  0
  126.0101  106.6995  -44.0384 H   0  0  0  1  0  1  0  0  0  0  0  0
  126.2007  108.4765  -43.8536 H   0  0  0  1  0  1  0  0  0  0  0  0
  126.2729  107.7304  -45.4854 H   0  0  0  1  0  1  0  0  0  0  0  0
  124.1620  107.0120  -43.1120 H   0  0  0  1  0  1  0  0  0  0  0  0
  124.4747  109.2492  -46.2102 H   0  0  0  1  0  1  0  0  0  0  0  0
  124.3684  109.9590  -44.5642 H   0  0  0  1  0  1  0  0  0  0  0  0
  122.9104  109.2398  -45.3286 H   0  0  0  1  0  1  0  0  0  0  0  0
  1  5  1  0  0  0  0
  1  8  1  0  0  0  0
  1 10  1  0  0  0  0
  1 16  1  0  0  0  0
  2  3  2  0  0  0  0
  2  5  1  0  0  0  0
  2  7  1  0  0  0  0
  3  4  1  0  0  0  0
  3 11  1  0  0  0  0
  4  6  2  0  0  0  0
  4 12  1  0  0  0  0
  5 14  1  0  0  0  0
  5 15  1  0  0  0  0
  6  9  1  0  0  0  0
  6 17  1  0  0  0  0
  7  9  2  0  0  0  0
  7 18  1  0  0  0  0
  8 19  1  0  0  0  0
  8 20  1  0  0  0  0
  8 21  1  0  0  0  0
  9 13  1  0  0  0  0
 10 23  1  0  0  0  0
 10 24  1  0  0  0  0
 10 25  1  0  0  0  0
 11 22  1  0  0  0  0
M  END
> <ConfScore>
-0.71925

$$$$
4agl


 25 25  0  0  0  0  0  0  0  0999 V2000
  124.8133  107.5195  -45.8437 N   0  3  0  1  0  4  0  0  0  0  0  0
  124.0410  105.3610  -44.8150 C   0  0  0  1  0  3  0  0  0  0  0  0
  124.3680  105.1510  -43.4700 C   0  0  0  1  0  3  0  0  0  0  0  0
  124.6850  103.8760  -43.0070 C   0  0  0  1  0  3  0  0  0  0  0  0
  123.6670  106.7390  -45.3390 C   0  0  0  1  0  4  0  0  0  0  0  0
  124.6740  102.7730  -43.8740 C   0  0  0  1  0  3  0  0  0  0  0  0
  124.0340  104.2490  -45.6830 C   0  0  0  1  0  3  0  0  0  0  0  0
  125.8554  107.7838  -44.8311 C   0  0  0  1  0  4  0  0  0  0  0  0
  124.3470  102.9640  -45.2180 C   0  0  0  1  0  3  0  0  0  0  0  0
  125.3835  106.9338  -47.0670 C   0  0  0  1  0  4  0  0  0  0  0  0
  124.4050  106.2300  -42.6310 O   0  0  0  1  0  2  0  0  0  0  0  0
  125.1380  103.6400  -40.9640 I   0  0  0  1  0  1  0  0  0  0  0  0
  124.3140  101.3570  -46.5570 I   0  0  0  1  0  1  0  0  0  0  0  0
  123.1962  107.3045  -44.5211 H   0  0  0  1  0  1  0  0  0  0  0  0
  122.9448  106.6134  -46.1599 H   0  0  0  1  0  1  0  0  0  0  0  0
  124.4424  108.4192  -46.1035 H   0  0  0  1  0  1  0  0  0  0  0  0
  124.9170  101.7840  -43.5040 H   0  0  0  1  0  1  0  0  0  0  0  0
  123.7830  104.3910  -46.7280 H   0  0  0  1  0  1  0  0  0  0  0  0
  125.4236  108.3674  -44.0043 H   0  0  0  1  0  1  0  0  0  0  0  0
  126.6776  108.3517  -45.2909 H   0  0  0  1  0  1  0  0  0  0  0  0
  126.2414  106.8298  -44.4433 H   0  0  0  1  0  1  0  0  0  0  0  0
  124.1620  107.0120  -43.1120 H   0  0  0  1  0  1  0  0  0  0  0  0
  124.5785  106.7348  -47.7886 H   0  0  0  1  0  1  0  0  0  0  0  0
  125.8938  105.9907  -46.8187 H   0  0  0  1  0  1  0  0  0  0  0  0
  126.1057  107.6364  -47.5072 H   0  0  0  1  0  1  0  0  0  0  0  0
  1  5  1  0  0  0  0
  1  8  1  0  0  0  0
  1 10  1  0  0  0  0
  1 16  1  0  0  0  0
  2  3  2  0  0  0  0
  2  5  1  0  0  0  0
  2  7  1  0  0  0  0
  3  4  1  0  0  0  0
  3 11  1  0  0  0  0
  4  6  2  0  0  0  0
  4 12  1  0  0  0  0
  5 14  1  0  0  0  0
  5 15  1  0  0  0  0
  6  9  1  0  0  0  0
  6 17  1  0  0  0  0
  7  9  2  0  0  0  0
  7 18  1  0  0  0  0
  8 19  1  0  0  0  0
  8 20  1  0  0  0  0
  8 21  1  0  0  0  0
  9 13  1  0  0  0  0
 10 23  1  0  0  0  0
 10 24  1  0  0  0  0
 10 25  1  0  0  0  0
 11 22  1  0  0  0  0
M  END
> <ConfScore>
-0.718527

$$$$
4agl


 25 25  0  0  0  0  0  0  0  0999 V2000
  122.5151  107.3504  -44.6481 N   0  3  0  1  0  4  0  0  0  0  0  0
  124.0410  105.3610  -44.8150 C   0  0  0  1  0  3  0  0  0  0  0  0
  124.3680  105.1510  -43.4700 C   0  0  0  1  0  3  0  0  0  0  0  0
  124.6850  103.8760  -43.0070 C   0  0  0  1  0  3  0  0  0  0  0  0
  123.6670  106.7390  -45.3390 C   0  0  0  1  0  4  0  0  0  0  0  0
  124.6740  102.7730  -43.8740 C   0  0  0  1  0  3  0  0  0  0  0  0
  124.0340  104.2490  -45.6830 C   0  0  0  1  0  3  0  0  0  0  0  0
  122.2071  108.7254  -45.0905 C   0  0  0  1  0  4  0  0  0  0  0  0
  124.3470  102.9640  -45.2180 C   0  0  0  1  0  3  0  0  0  0  0  0
  121.3240  106.4879  -44.6927 C   0  0  0  1  0  4  0  0  0  0  0  0
  124.4050  106.2300  -42.6310 O   0  0  0  1  0  2  0  0  0  0  0  0
  125.1380  103.6400  -40.9640 I   0  0  0  1  0  1  0  0  0  0  0  0
  124.3140  101.3570  -46.5570 I   0  0  0  1  0  1  0  0  0  0  0  0
  123.4216  106.6483  -46.4076 H   0  0  0  1  0  1  0  0  0  0  0  0
  124.5361  107.4033  -45.2184 H   0  0  0  1  0  1  0  0  0  0  0  0
  122.7801  107.4220  -43.6789 H   0  0  0  1  0  1  0  0  0  0  0  0
  124.9170  101.7840  -43.5040 H   0  0  0  1  0  1  0  0  0  0  0  0
  123.7830  104.3910  -46.7280 H   0  0  0  1  0  1  0  0  0  0  0  0
  123.1153  109.3431  -45.0267 H   0  0  0  1  0  1  0  0  0  0  0  0
  121.4267  109.1523  -44.4435 H   0  0  0  1  0  1  0  0  0  0  0  0
  121.8501  108.7055  -46.1305 H   0  0  0  1  0  1  0  0  0  0  0  0
  124.1620  107.0120  -43.1120 H   0  0  0  1  0  1  0  0  0  0  0  0
  121.5949  105.4710  -44.3748 H   0  0  0  1  0  1  0  0  0  0  0  0
  120.9314  106.4575  -45.7205 H   0  0  0  1  0  1  0  0  0  0  0  0
  120.5547  106.8907  -44.0183 H   0  0  0  1  0  1  0  0  0  0  0  0
  1  5  1  0  0  0  0
  1  8  1  0  0  0  0
  1 10  1  0  0  0  0
  1 16  1  0  0  0  0
  2  3  2  0  0  0  0
  2  5  1  0  0  0  0
  2  7  1  0  0  0  0
  3  4  1  0  0  0  0
  3 11  1  0  0  0  0
  4  6  2  0  0  0  0
  4 12  1  0  0  0  0
  5 14  1  0  0  0  0
  5 15  1  0  0  0  0
  6  9  1  0  0  0  0
  6 17  1  0  0  0  0
  7  9  2  0  0  0  0
  7 18  1  0  0  0  0
  8 19  1  0  0  0  0
  8 20  1  0  0  0  0
  8 21  1  0  0  0  0
  9 13  1  0  0  0  0
 10 23  1  0  0  0  0
 10 24  1  0  0  0  0
 10 25  1  0  0  0  0
 11 22  1  0  0  0  0
M  END
> <ConfScore>
-0.710248

$$$$
4agl


 25 25  0  0  0  0  0  0  0  0999 V2000
  122.5151  107.3504  -44.6481 N   0  3  0  1  0  4  0  0  0  0  0  0
  124.0410  105.3610  -44.8150 C   0  0  0  1  0  3  0  0  0  0  0  0
  124.3680  105.1510  -43.4700 C   0  0  0  1  0  3  0  0  0  0  0  0
  124.6850  103.8760  -43.0070 C   0  0  0  1  0  3  0  0  0  0  0  0
  123.6670  106.7390  -45.3390 C   0  0  0  1  0  4  0  0  0  0  0  0
  124.6740  102.7730  -43.8740 C   0  0  0  1  0  3  0  0  0  0  0  0
  124.0340  104.2490  -45.6830 C   0  0  0  1  0  3  0  0  0  0  0  0
  122.2071  108.7254  -45.0905 C   0  0  0  1  0  4  0  0  0  0  0  0
  124.3470  102.9640  -45.2180 C   0  0  0  1  0  3  0  0  0  0  0  0
  121.3240  106.4879  -44.6927 C   0  0  0  1  0  4  0  0  0  0  0  0
  124.4050  106.2300  -42.6310 O   0  0  0  1  0  2  0  0  0  0  0  0
  125.1380  103.6400  -40.9640 I   0  0  0  1  0  1  0  0  0  0  0  0
  124.3140  101.3570  -46.5570 I   0  0  0  1  0  1  0  0  0  0  0  0
  123.4216  106.6483  -46.4076 H   0  0  0  1  0  1  0  0  0  0  0  0
  124.5361  107.4033  -45.2184 H   0  0  0  1  0  1  0  0  0  0  0  0
  122.7801  107.4220  -43.6789 H   0  0  0  1  0  1  0  0  0  0  0  0
  124.9170  101.7840  -43.5040 H   0  0  0  1  0  1  0  0  0  0  0  0
  123.7830  104.3910  -46.7280 H   0  0  0  1  0  1  0  0  0  0  0  0
  123.1153  109.3431  -45.0267 H   0  0  0  1  0  1  0  0  0  0  0  0
  121.4267  109.1523  -44.4435 H   0  0  0  1  0  1  0  0  0  0  0  0
  121.8501  108.7055  -46.1305 H   0  0  0  1  0  1  0  0  0  0  0  0
  124.1620  107.0120  -43.1120 H   0  0  0  1  0  1  0  0  0  0  0  0
  121.0288  106.3232  -45.7388 H   0  0  0  1  0  1  0  0  0  0  0  0
  120.4983  106.9745  -44.1517 H   0  0  0  1  0  1  0  0  0  0  0  0
  121.5533  105.5221  -44.2197 H   0  0  0  1  0  1  0  0  0  0  0  0
  1  5  1  0  0  0  0
  1  8  1  0  0  0  0
  1 10  1  0  0  0  0
  1 16  1  0  0  0  0
  2  3  2  0  0  0  0
  2  5  1  0  0  0  0
  2  7  1  0  0  0  0
  3  4  1  0  0  0  0
  3 11  1  0  0  0  0
  4  6  2  0  0  0  0
  4 12  1  0  0  0  0
  5 14  1  0  0  0  0
  5 15  1  0  0  0  0
  6  9  1  0  0  0  0
  6 17  1  0  0  0  0
  7  9  2  0  0  0  0
  7 18  1  0  0  0  0
  8 19  1  0  0  0  0
  8 20  1  0  0  0  0
  8 21  1  0  0  0  0
  9 13  1  0  0  0  0
 10 23  1  0  0  0  0
 10 24  1  0  0  0  0
 10 25  1  0  0  0  0
 11 22  1  0  0  0  0
M  END
> <ConfScore>
-0.710248

$$$$
4agl


 25 25  0  0  0  0  0  0  0  0999 V2000
  122.5151  107.3504  -44.6481 N   0  3  0  1  0  4  0  0  0  0  0  0
  124.0410  105.3610  -44.8150 C   0  0  0  1  0  3  0  0  0  0  0  0
  124.3680  105.1510  -43.4700 C   0  0  0  1  0  3  0  0  0  0  0  0
  124.6850  103.8760  -43.0070 C   0  0  0  1  0  3  0  0  0  0  0  0
  123.6670  106.7390  -45.3390 C   0  0  0  1  0  4  0  0  0  0  0  0
  124.6740  102.7730  -43.8740 C   0  0  0  1  0  3  0  0  0  0  0  0
  124.0340  104.2490  -45.6830 C   0  0  0  1  0  3  0  0  0  0  0  0
  122.2071  108.7254  -45.0905 C   0  0  0  1  0  4  0  0  0  0  0  0
  124.3470  102.9640  -45.2180 C   0  0  0  1  0  3  0  0  0  0  0  0
  121.3240  106.4879  -44.6927 C   0  0  0  1  0  4  0  0  0  0  0  0
  124.4050  106.2300  -42.6310 O   0  0  0  1  0  2  0  0  0  0  0  0
  125.1380  103.6400  -40.9640 I   0  0  0  1  0  1  0  0  0  0  0  0
  124.3140  101.3570  -46.5570 I   0  0  0  1  0  1  0  0  0  0  0  0
  123.4216  106.6483  -46.4076 H   0  0  0  1  0  1  0  0  0  0  0  0
  124.5361  107.4033  -45.2184 H   0  0  0  1  0  1  0  0  0  0  0  0
  122.7801  107.4220  -43.6789 H   0  0  0  1  0  1  0  0  0  0  0  0
  124.9170  101.7840  -43.5040 H   0  0  0  1  0  1  0  0  0  0  0  0
  123.7830  104.3910  -46.7280 H   0  0  0  1  0  1  0  0  0  0  0  0
  123.1153  109.3431  -45.0267 H   0  0  0  1  0  1  0  0  0  0  0  0
  121.4267  109.1523  -44.4435 H   0  0  0  1  0  1  0  0  0  0  0  0
  121.8501  108.7055  -46.1305 H   0  0  0  1  0  1  0  0  0  0  0  0
  124.1620  107.0120  -43.1120 H   0  0  0  1  0  1  0  0  0  0  0  0
  120.4987  106.9732  -44.1526 H   0  0  0  1  0  1  0  0  0  0  0  0
  121.5531  105.5212  -44.2189 H   0  0  0  1  0  1  0  0  0  0  0  0
  121.0306  106.3225  -45.7394 H   0  0  0  1  0  1  0  0  0  0  0  0
  1  5  1  0  0  0  0
  1  8  1  0  0  0  0
  1 10  1  0  0  0  0
  1 16  1  0  0  0  0
  2  3  2  0  0  0  0
  2  5  1  0  0  0  0
  2  7  1  0  0  0  0
  3  4  1  0  0  0  0
  3 11  1  0  0  0  0
  4  6  2  0  0  0  0
  4 12  1  0  0  0  0
  5 14  1  0  0  0  0
  5 15  1  0  0  0  0
  6  9  1  0  0  0  0
  6 17  1  0  0  0  0
  7  9  2  0  0  0  0
  7 18  1  0  0  0  0
  8 19  1  0  0  0  0
  8 20  1  0  0  0  0
  8 21  1  0  0  0  0
  9 13  1  0  0  0  0
 10 23  1  0  0  0  0
 10 24  1  0  0  0  0
 10 25  1  0  0  0  0
 11 22  1  0  0  0  0
M  END
> <ConfScore>
-0.710248

$$$$
4agl


 25 25  0  0  0  0  0  0  0  0999 V2000
  122.5151  107.3504  -44.6481 N   0  3  0  1  0  4  0  0  0  0  0  0
  124.0410  105.3610  -44.8150 C   0  0  0  1  0  3  0  0  0  0  0  0
  124.3680  105.1510  -43.4700 C   0  0  0  1  0  3  0  0  0  0  0  0
  124.6850  103.8760  -43.0070 C   0  0  0  1  0  3  0  0  0  0  0  0
  123.6670  106.7390  -45.3390 C   0  0  0  1  0  4  0  0  0  0  0  0
  124.6740  102.7730  -43.8740 C   0  0  0  1  0  3  0  0  0  0  0  0
  124.0340  104.2490  -45.6830 C   0  0  0  1  0  3  0  0  0  0  0  0
  121.2927  106.5218  -44.6651 C   0  0  0  1  0  4  0  0  0  0  0  0
  124.3470  102.9640  -45.2180 C   0  0  0  1  0  3  0  0  0  0  0  0
  122.8565  107.7834  -43.2841 C   0  0  0  1  0  4  0  0  0  0  0  0
  124.4050  106.2300  -42.6310 O   0  0  0  1  0  2  0  0  0  0  0  0
  125.1380  103.6400  -40.9640 I   0  0  0  1  0  1  0  0  0  0  0  0
  124.3140  101.3570  -46.5570 I   0  0  0  1  0  1  0  0  0  0  0  0
  123.4216  106.6483  -46.4076 H   0  0  0  1  0  1  0  0  0  0  0  0
  124.5361  107.4033  -45.2184 H   0  0  0  1  0  1  0  0  0  0  0  0
  122.2933  108.1854  -45.1660 H   0  0  0  1  0  1  0  0  0  0  0  0
  124.9170  101.7840  -43.5040 H   0  0  0  1  0  1  0  0  0  0  0  0
  123.7830  104.3910  -46.7280 H   0  0  0  1  0  1  0  0  0  0  0  0
  121.0600  106.2328  -45.7009 H   0  0  0  1  0  1  0  0  0  0  0  0
  120.4537  107.0978  -44.2476 H   0  0  0  1  0  1  0  0  0  0  0  0
  121.4531  105.6177  -44.0599 H   0  0  0  1  0  1  0  0  0  0  0  0
  124.1620  107.0120  -43.1120 H   0  0  0  1  0  1  0  0  0  0  0  0
  121.9772  108.2473  -42.8152 H   0  0  0  1  0  1  0  0  0  0  0  0
  123.6776  108.5151  -43.3262 H   0  0  0  1  0  1  0  0  0  0  0  0
  123.1718  106.9125  -42.6915 H   0  0  0  1  0  1  0  0  0  0  0  0
  1  5  1  0  0  0  0
  1  8  1  0  0  0  0
  1 10  1  0  0  0  0
  1 16  1  0  0  0  0
  2  3  2  0  0  0  0
  2  5  1  0  0  0  0
  2  7  1  0  0  0  0
  3  4  1  0  0  0  0
  3 11  1  0  0  0  0
  4  6  2  0  0  0  0
  4 12  1  0  0  0  0
  5 14  1  0  0  0  0
  5 15  1  0  0  0  0
  6  9  1  0  0  0  0
  6 17  1  0  0  0  0
  7  9  2  0  0  0  0
  7 18  1  0  0  0  0
  8 19  1  0  0  0  0
  8 20  1  0  0  0  0
  8 21  1  0  0  0  0
  9 13  1  0  0  0  0
 10 23  1  0  0  0  0
 10 24  1  0  0  0  0
 10 25  1  0  0  0  0
 11 22  1  0  0  0  0
M  END
> <ConfScore>
-0.706472

$$$$
4agl


 25 25  0  0  0  0  0  0  0  0999 V2000
  122.5151  107.3504  -44.6481 N   0  3  0  1  0  4  0  0  0  0  0  0
  124.0410  105.3610  -44.8150 C   0  0  0  1  0  3  0  0  0  0  0  0
  124.3680  105.1510  -43.4700 C   0  0  0  1  0  3  0  0  0  0  0  0
  124.6850  103.8760  -43.0070 C   0  0  0  1  0  3  0  0  0  0  0  0
  123.6670  106.7390  -45.3390 C   0  0  0  1  0  4  0  0  0  0  0  0
  124.6740  102.7730  -43.8740 C   0  0  0  1  0  3  0  0  0  0  0  0
  124.0340  104.2490  -45.6830 C   0  0  0  1  0  3  0  0  0  0  0  0
  121.2927  106.5218  -44.6651 C   0  0  0  1  0  4  0  0  0  0  0  0
  124.3470  102.9640  -45.2180 C   0  0  0  1  0  3  0  0  0  0  0  0
  122.8565  107.7834  -43.2841 C   0  0  0  1  0  4  0  0  0  0  0  0
  124.4050  106.2300  -42.6310 O   0  0  0  1  0  2  0  0  0  0  0  0
  125.1380  103.6400  -40.9640 I   0  0  0  1  0  1  0  0  0  0  0  0
  124.3140  101.3570  -46.5570 I   0  0  0  1  0  1  0  0  0  0  0  0
  123.4216  106.6483  -46.4076 H   0  0  0  1  0  1  0  0  0  0  0  0
  124.5361  107.4033  -45.2184 H   0  0  0  1  0  1  0  0  0  0  0  0
  122.2933  108.1854  -45.1660 H   0  0  0  1  0  1  0  0  0  0  0  0
  124.9170  101.7840  -43.5040 H   0  0  0  1  0  1  0  0  0  0  0  0
  123.7830  104.3910  -46.7280 H   0  0  0  1  0  1  0  0  0  0  0  0
  121.0600  106.2328  -45.7009 H   0  0  0  1  0  1  0  0  0  0  0  0
  120.4537  107.0978  -44.2476 H   0  0  0  1  0  1  0  0  0  0  0  0
  121.4531  105.6177  -44.0599 H   0  0  0  1  0  1  0  0  0  0  0  0
  124.1620  107.0120  -43.1120 H   0  0  0  1  0  1  0  0  0  0  0  0
  123.7789  108.3810  -43.3085 H   0  0  0  1  0  1  0  0  0  0  0  0
  123.0100  106.8996  -42.6463 H   0  0  0  1  0  1  0  0  0  0  0  0
  122.0359  108.3913  -42.8767 H   0  0  0  1  0  1  0  0  0  0  0  0
  1  5  1  0  0  0  0
  1  8  1  0  0  0  0
  1 10  1  0  0  0  0
  1 16  1  0  0  0  0
  2  3  2  0  0  0  0
  2  5  1  0  0  0  0
  2  7  1  0  0  0  0
  3  4  1  0  0  0  0
  3 11  1  0  0  0  0
  4  6  2  0  0  0  0
  4 12  1  0  0  0  0
  5 14  1  0  0  0  0
  5 15  1  0  0  0  0
  6  9  1  0  0  0  0
  6 17  1  0  0  0  0
  7  9  2  0  0  0  0
  7 18  1  0  0  0  0
  8 19  1  0  0  0  0
  8 20  1  0  0  0  0
  8 21  1  0  0  0  0
  9 13  1  0  0  0  0
 10 23  1  0  0  0  0
 10 24  1  0  0  0  0
 10 25  1  0  0  0  0
 11 22  1  0  0  0  0
M  END
> <ConfScore>
-0.706472

$$$$
4agl


 25 25  0  0  0  0  0  0  0  0999 V2000
  122.5007  107.3405  -44.6638 N   0  3  0  1  0  4  0  0  0  0  0  0
  124.0410  105.3610  -44.8150 C   0  0  0  1  0  3  0  0  0  0  0  0
  124.3680  105.1510  -43.4700 C   0  0  0  1  0  3  0  0  0  0  0  0
  124.6850  103.8760  -43.0070 C   0  0  0  1  0  3  0  0  0  0  0  0
  123.6670  106.7390  -45.3390 C   0  0  0  1  0  4  0  0  0  0  0  0
  124.6740  102.7730  -43.8740 C   0  0  0  1  0  3  0  0  0  0  0  0
  124.0340  104.2490  -45.6830 C   0  0  0  1  0  3  0  0  0  0  0  0
  122.6533  107.4737  -43.2009 C   0  0  0  1  0  4  0  0  0  0  0  0
  124.3470  102.9640  -45.2180 C   0  0  0  1  0  3  0  0  0  0  0  0
  122.0999  108.6129  -45.2843 C   0  0  0  1  0  4  0  0  0  0  0  0
  124.4050  106.2300  -42.6310 O   0  0  0  1  0  2  0  0  0  0  0  0
  125.1380  103.6400  -40.9640 I   0  0  0  1  0  1  0  0  0  0  0  0
  124.3140  101.3570  -46.5570 I   0  0  0  1  0  1  0  0  0  0  0  0
  123.4391  106.6515  -46.4117 H   0  0  0  1  0  1  0  0  0  0  0  0
  124.5301  107.4080  -45.2018 H   0  0  0  1  0  1  0  0  0  0  0  0
  121.7371  106.6994  -44.8073 H   0  0  0  1  0  1  0  0  0  0  0  0
  124.9170  101.7840  -43.5040 H   0  0  0  1  0  1  0  0  0  0  0  0
  123.7830  104.3910  -46.7280 H   0  0  0  1  0  1  0  0  0  0  0  0
  122.9355  106.5008  -42.7716 H   0  0  0  1  0  1  0  0  0  0  0  0
  121.7012  107.8064  -42.7619 H   0  0  0  1  0  1  0  0  0  0  0  0
  123.4368  108.2129  -42.9790 H   0  0  0  1  0  1  0  0  0  0  0  0
  124.1620  107.0120  -43.1120 H   0  0  0  1  0  1  0  0  0  0  0  0
  122.0137  108.4799  -46.3721 H   0  0  0  1  0  1  0  0  0  0  0  0
  122.8579  109.3811  -45.0685 H   0  0  0  1  0  1  0  0  0  0  0  0
  121.1298  108.9302  -44.8754 H   0  0  0  1  0  1  0  0  0  0  0  0
  1  5  1  0  0  0  0
  1  8  1  0  0  0  0
  1 10  1  0  0  0  0
  1 16  1  0  0  0  0
  2  3  2  0  0  0  0
  2  5  1  0  0  0  0
  2  7  1  0  0  0  0
  3  4  1  0  0  0  0
  3 11  1  0  0  0  0
  4  6  2  0  0  0  0
  4 12  1  0  0  0  0
  5 14  1  0  0  0  0
  5 15  1  0  0  0  0
  6  9  1  0  0  0  0
  6 17  1  0  0  0  0
  7  9  2  0  0  0  0
  7 18  1  0  0  0  0
  8 19  1  0  0  0  0
  8 20  1  0  0  0  0
  8 21  1  0  0  0  0
  9 13  1  0  0  0  0
 10 23  1  0  0  0  0
 10 24  1  0  0  0  0
 10 25  1  0  0  0  0
 11 22  1  0  0  0  0
M  END
> <ConfScore>
-0.68095

$$$$
4agl


 25 25  0  0  0  0  0  0  0  0999 V2000
  122.5007  107.3405  -44.6638 N   0  3  0  1  0  4  0  0  0  0  0  0
  124.0410  105.3610  -44.8150 C   0  0  0  1  0  3  0  0  0  0  0  0
  124.3680  105.1510  -43.4700 C   0  0  0  1  0  3  0  0  0  0  0  0
  124.6850  103.8760  -43.0070 C   0  0  0  1  0  3  0  0  0  0  0  0
  123.6670  106.7390  -45.3390 C   0  0  0  1  0  4  0  0  0  0  0  0
  124.6740  102.7730  -43.8740 C   0  0  0  1  0  3  0  0  0  0  0  0
  124.0340  104.2490  -45.6830 C   0  0  0  1  0  3  0  0  0  0  0  0
  122.5909  107.3401  -43.1897 C   0  0  0  1  0  4  0  0  0  0  0  0
  124.3470  102.9640  -45.2180 C   0  0  0  1  0  3  0  0  0  0  0  0
  122.1911  108.6804  -45.1868 C   0  0  0  1  0  4  0  0  0  0  0  0
  124.4050  106.2300  -42.6310 O   0  0  0  1  0  2  0  0  0  0  0  0
  125.1380  103.6400  -40.9640 I   0  0  0  1  0  1  0  0  0  0  0  0
  124.3140  101.3570  -46.5570 I   0  0  0  1  0  1  0  0  0  0  0  0
  123.4391  106.6515  -46.4117 H   0  0  0  1  0  1  0  0  0  0  0  0
  124.5301  107.4080  -45.2018 H   0  0  0  1  0  1  0  0  0  0  0  0
  121.7146  106.7546  -44.8953 H   0  0  0  1  0  1  0  0  0  0  0  0
  124.9170  101.7840  -43.5040 H   0  0  0  1  0  1  0  0  0  0  0  0
  123.7830  104.3910  -46.7280 H   0  0  0  1  0  1  0  0  0  0  0  0
  122.8054  106.3207  -42.8358 H   0  0  0  1  0  1  0  0  0  0  0  0
  121.6364  107.6831  -42.7640 H   0  0  0  1  0  1  0  0  0  0  0  0
  123.3979  108.0158  -42.8708 H   0  0  0  1  0  1  0  0  0  0  0  0
  124.1620  107.0120  -43.1120 H   0  0  0  1  0  1  0  0  0  0  0  0
  121.3079  109.0814  -44.6696 H   0  0  0  1  0  1  0  0  0  0  0  0
  121.9847  108.6143  -46.2659 H   0  0  0  1  0  1  0  0  0  0  0  0
  123.0494  109.3466  -45.0180 H   0  0  0  1  0  1  0  0  0  0  0  0
  1  5  1  0  0  0  0
  1  8  1  0  0  0  0
  1 10  1  0  0  0  0
  1 16  1  0  0  0  0
  2  3  2  0  0  0  0
  2  5  1  0  0  0  0
  2  7  1  0  0  0  0
  3  4  1  0  0  0  0
  3 11  1  0  0  0  0
  4  6  2  0  0  0  0
  4 12  1  0  0  0  0
  5 14  1  0  0  0  0
  5 15  1  0  0  0  0
  6  9  1  0  0  0  0
  6 17  1  0  0  0  0
  7  9  2  0  0  0  0
  7 18  1  0  0  0  0
  8 19  1  0  0  0  0
  8 20  1  0  0  0  0
  8 21  1  0  0  0  0
  9 13  1  0  0  0  0
 10 23  1  0  0  0  0
 10 24  1  0  0  0  0
 10 25  1  0  0  0  0
 11 22  1  0  0  0  0
M  END
> <ConfScore>
-0.68095

$$$$
4agl


 25 25  0  0  0  0  0  0  0  0999 V2000
  122.3010  106.8194  -45.8917 N   0  3  0  1  0  4  0  0  0  0  0  0
  124.0410  105.3610  -44.8150 C   0  0  0  1  0  3  0  0  0  0  0  0
  124.3680  105.1510  -43.4700 C   0  0  0  1  0  3  0  0  0  0  0  0
  124.6850  103.8760  -43.0070 C   0  0  0  1  0  3  0  0  0  0  0  0
  123.6670  106.7390  -45.3390 C   0  0  0  1  0  4  0  0  0  0  0  0
  124.6740  102.7730  -43.8740 C   0  0  0  1  0  3  0  0  0  0  0  0
  124.0340  104.2490  -45.6830 C   0  0  0  1  0  3  0  0  0  0  0  0
  121.9011  108.1763  -46.3161 C   0  0  0  1  0  4  0  0  0  0  0  0
  124.3470  102.9640  -45.2180 C   0  0  0  1  0  3  0  0  0  0  0  0
  122.0787  105.8311  -46.9586 C   0  0  0  1  0  4  0  0  0  0  0  0
  124.4050  106.2300  -42.6310 O   0  0  0  1  0  2  0  0  0  0  0  0
  125.1380  103.6400  -40.9640 I   0  0  0  1  0  1  0  0  0  0  0  0
  124.3140  101.3570  -46.5570 I   0  0  0  1  0  1  0  0  0  0  0  0
  124.3783  107.0126  -46.1325 H   0  0  0  1  0  1  0  0  0  0  0  0
  123.7487  107.4588  -44.5104 H   0  0  0  1  0  1  0  0  0  0  0  0
  121.6822  106.5695  -45.1371 H   0  0  0  1  0  1  0  0  0  0  0  0
  124.9170  101.7840  -43.5040 H   0  0  0  1  0  1  0  0  0  0  0  0
  123.7830  104.3910  -46.7280 H   0  0  0  1  0  1  0  0  0  0  0  0
  122.0649  108.8825  -45.4885 H   0  0  0  1  0  1  0  0  0  0  0  0
  120.8364  108.1750  -46.5922 H   0  0  0  1  0  1  0  0  0  0  0  0
  122.5039  108.4825  -47.1835 H   0  0  0  1  0  1  0  0  0  0  0  0
  124.1620  107.0120  -43.1120 H   0  0  0  1  0  1  0  0  0  0  0  0
  121.0465  105.9146  -47.3274 H   0  0  0  1  0  1  0  0  0  0  0  0
  122.2443  104.8183  -46.5608 H   0  0  0  1  0  1  0  0  0  0  0  0
  122.7798  106.0197  -47.7844 H   0  0  0  1  0  1  0  0  0  0  0  0
  1  5  1  0  0  0  0
  1  8  1  0  0  0  0
  1 10  1  0  0  0  0
  1 16  1  0  0  0  0
  2  3  2  0  0  0  0
  2  5  1  0  0  0  0
  2  7  1  0  0  0  0
  3  4  1  0  0  0  0
  3 11  1  0  0  0  0
  4  6  2  0  0  0  0
  4 12  1  0  0  0  0
  5 14  1  0  0  0  0
  5 15  1  0  0  0  0
  6  9  1  0  0  0  0
  6 17  1  0  0  0  0
  7  9  2  0  0  0  0
  7 18  1  0  0  0  0
  8 19  1  0  0  0  0
  8 20  1  0  0  0  0
  8 21  1  0  0  0  0
  9 13  1  0  0  0  0
 10 23  1  0  0  0  0
 10 24  1  0  0  0  0
 10 25  1  0  0  0  0
 11 22  1  0  0  0  0
M  END
> <ConfScore>
-0.67594

$$$$
4agl


 25 25  0  0  0  0  0  0  0  0999 V2000
  122.3010  106.8194  -45.8917 N   0  3  0  1  0  4  0  0  0  0  0  0
  124.0410  105.3610  -44.8150 C   0  0  0  1  0  3  0  0  0  0  0  0
  124.3680  105.1510  -43.4700 C   0  0  0  1  0  3  0  0  0  0  0  0
  124.6850  103.8760  -43.0070 C   0  0  0  1  0  3  0  0  0  0  0  0
  123.6670  106.7390  -45.3390 C   0  0  0  1  0  4  0  0  0  0  0  0
  124.6740  102.7730  -43.8740 C   0  0  0  1  0  3  0  0  0  0  0  0
  124.0340  104.2490  -45.6830 C   0  0  0  1  0  3  0  0  0  0  0  0
  121.9589  108.1368  -46.4647 C   0  0  0  1  0  4  0  0  0  0  0  0
  124.3470  102.9640  -45.2180 C   0  0  0  1  0  3  0  0  0  0  0  0
  122.0245  105.7286  -46.8395 C   0  0  0  1  0  4  0  0  0  0  0  0
  124.4050  106.2300  -42.6310 O   0  0  0  1  0  2  0  0  0  0  0  0
  125.1380  103.6400  -40.9640 I   0  0  0  1  0  1  0  0  0  0  0  0
  124.3140  101.3570  -46.5570 I   0  0  0  1  0  1  0  0  0  0  0  0
  124.3783  107.0126  -46.1325 H   0  0  0  1  0  1  0  0  0  0  0  0
  123.7487  107.4588  -44.5104 H   0  0  0  1  0  1  0  0  0  0  0  0
  121.6785  106.6846  -45.1112 H   0  0  0  1  0  1  0  0  0  0  0  0
  124.9170  101.7840  -43.5040 H   0  0  0  1  0  1  0  0  0  0  0  0
  123.7830  104.3910  -46.7280 H   0  0  0  1  0  1  0  0  0  0  0  0
  122.1621  108.9234  -45.7227 H   0  0  0  1  0  1  0  0  0  0  0  0
  120.8927  108.1535  -46.7346 H   0  0  0  1  0  1  0  0  0  0  0  0
  122.5670  108.3156  -47.3636 H   0  0  0  1  0  1  0  0  0  0  0  0
  124.1620  107.0120  -43.1120 H   0  0  0  1  0  1  0  0  0  0  0  0
  122.3073  104.7678  -46.3863 H   0  0  0  1  0  1  0  0  0  0  0  0
  122.6082  105.8852  -47.7594 H   0  0  0  1  0  1  0  0  0  0  0  0
  120.9523  105.7181  -47.0831 H   0  0  0  1  0  1  0  0  0  0  0  0
  1  5  1  0  0  0  0
  1  8  1  0  0  0  0
  1 10  1  0  0  0  0
  1 16  1  0  0  0  0
  2  3  2  0  0  0  0
  2  5  1  0  0  0  0
  2  7  1  0  0  0  0
  3  4  1  0  0  0  0
  3 11  1  0  0  0  0
  4  6  2  0  0  0  0
  4 12  1  0  0  0  0
  5 14  1  0  0  0  0
  5 15  1  0  0  0  0
  6  9  1  0  0  0  0
  6 17  1  0  0  0  0
  7  9  2  0  0  0  0
  7 18  1  0  0  0  0
  8 19  1  0  0  0  0
  8 20  1  0  0  0  0
  8 21  1  0  0  0  0
  9 13  1  0  0  0  0
 10 23  1  0  0  0  0
 10 24  1  0  0  0  0
 10 25  1  0  0  0  0
 11 22  1  0  0  0  0
M  END
> <ConfScore>
-0.67594

$$$$
4agl


 25 25  0  0  0  0  0  0  0  0999 V2000
  124.7166  107.7584  -45.1463 N   0  3  0  1  0  4  0  0  0  0  0  0
  124.0410  105.3610  -44.8150 C   0  0  0  1  0  3  0  0  0  0  0  0
  124.3680  105.1510  -43.4700 C   0  0  0  1  0  3  0  0  0  0  0  0
  124.6850  103.8760  -43.0070 C   0  0  0  1  0  3  0  0  0  0  0  0
  123.6670  106.7390  -45.3390 C   0  0  0  1  0  4  0  0  0  0  0  0
  124.6740  102.7730  -43.8740 C   0  0  0  1  0  3  0  0  0  0  0  0
  124.0340  104.2490  -45.6830 C   0  0  0  1  0  3  0  0  0  0  0  0
  124.3853  109.0801  -45.7161 C   0  0  0  1  0  4  0  0  0  0  0  0
  124.3470  102.9640  -45.2180 C   0  0  0  1  0  3  0  0  0  0  0  0
  125.1306  107.8643  -43.7385 C   0  0  0  1  0  4  0  0  0  0  0  0
  124.4050  106.2300  -42.6310 O   0  0  0  1  0  2  0  0  0  0  0  0
  125.1380  103.6400  -40.9640 I   0  0  0  1  0  1  0  0  0  0  0  0
  124.3140  101.3570  -46.5570 I   0  0  0  1  0  1  0  0  0  0  0  0
  122.7589  107.0737  -44.8159 H   0  0  0  1  0  1  0  0  0  0  0  0
  123.4586  106.6553  -46.4164 H   0  0  0  1  0  1  0  0  0  0  0  0
  125.5199  107.4282  -45.6565 H   0  0  0  1  0  1  0  0  0  0  0  0
  124.9170  101.7840  -43.5040 H   0  0  0  1  0  1  0  0  0  0  0  0
  123.7830  104.3910  -46.7280 H   0  0  0  1  0  1  0  0  0  0  0  0
  125.2153  109.7780  -45.5302 H   0  0  0  1  0  1  0  0  0  0  0  0
  123.4698  109.4643  -45.2426 H   0  0  0  1  0  1  0  0  0  0  0  0
  124.2241  108.9832  -46.7996 H   0  0  0  1  0  1  0  0  0  0  0  0
  124.1620  107.0120  -43.1120 H   0  0  0  1  0  1  0  0  0  0  0  0
  125.5095  106.8920  -43.3930 H   0  0  0  1  0  1  0  0  0  0  0  0
  124.2671  108.1601  -43.1234 H   0  0  0  1  0  1  0  0  0  0  0  0
  125.9230  108.6210  -43.6457 H   0  0  0  1  0  1  0  0  0  0  0  0
  1  5  1  0  0  0  0
  1  8  1  0  0  0  0
  1 10  1  0  0  0  0
  1 16  1  0  0  0  0
  2  3  2  0  0  0  0
  2  5  1  0  0  0  0
  2  7  1  0  0  0  0
  3  4  1  0  0  0  0
  3 11  1  0  0  0  0
  4  6  2  0  0  0  0
  4 12  1  0  0  0  0
  5 14  1  0  0  0  0
  5 15  1  0  0  0  0
  6  9  1  0  0  0  0
  6 17  1  0  0  0  0
  7  9  2  0  0  0  0
  7 18  1  0  0  0  0
  8 19  1  0  0  0  0
  8 20  1  0  0  0  0
  8 21  1  0  0  0  0
  9 13  1  0  0  0  0
 10 23  1  0  0  0  0
 10 24  1  0  0  0  0
 10 25  1  0  0  0  0
 11 22  1  0  0  0  0
M  END
> <ConfScore>
-0.67594

$$$$
4agl


 25 25  0  0  0  0  0  0  0  0999 V2000
  122.2954  106.8234  -45.8772 N   0  3  0  1  0  4  0  0  0  0  0  0
  124.0410  105.3610  -44.8150 C   0  0  0  1  0  3  0  0  0  0  0  0
  124.3680  105.1510  -43.4700 C   0  0  0  1  0  3  0  0  0  0  0  0
  124.6850  103.8760  -43.0070 C   0  0  0  1  0  3  0  0  0  0  0  0
  123.6670  106.7390  -45.3390 C   0  0  0  1  0  4  0  0  0  0  0  0
  124.6740  102.7730  -43.8740 C   0  0  0  1  0  3  0  0  0  0  0  0
  124.0340  104.2490  -45.6830 C   0  0  0  1  0  3  0  0  0  0  0  0
  121.8295  108.2024  -46.1269 C   0  0  0  1  0  4  0  0  0  0  0  0
  124.3470  102.9640  -45.2180 C   0  0  0  1  0  3  0  0  0  0  0  0
  122.1138  105.9681  -47.0604 C   0  0  0  1  0  4  0  0  0  0  0  0
  124.4050  106.2300  -42.6310 O   0  0  0  1  0  2  0  0  0  0  0  0
  125.1380  103.6400  -40.9640 I   0  0  0  1  0  1  0  0  0  0  0  0
  124.3140  101.3570  -46.5570 I   0  0  0  1  0  1  0  0  0  0  0  0
  124.3708  107.0074  -46.1409 H   0  0  0  1  0  1  0  0  0  0  0  0
  123.7605  107.4608  -44.5135 H   0  0  0  1  0  1  0  0  0  0  0  0
  121.6937  106.4512  -45.1603 H   0  0  0  1  0  1  0  0  0  0  0  0
  124.9170  101.7840  -43.5040 H   0  0  0  1  0  1  0  0  0  0  0  0
  123.7830  104.3910  -46.7280 H   0  0  0  1  0  1  0  0  0  0  0  0
  121.9647  108.8056  -45.2167 H   0  0  0  1  0  1  0  0  0  0  0  0
  120.7644  108.1854  -46.4010 H   0  0  0  1  0  1  0  0  0  0  0  0
  122.4120  108.6440  -46.9486 H   0  0  0  1  0  1  0  0  0  0  0  0
  124.1620  107.0120  -43.1120 H   0  0  0  1  0  1  0  0  0  0  0  0
  122.6717  106.3906  -47.9082 H   0  0  0  1  0  1  0  0  0  0  0  0
  121.0443  105.9169  -47.3153 H   0  0  0  1  0  1  0  0  0  0  0  0
  122.4874  104.9572  -46.8425 H   0  0  0  1  0  1  0  0  0  0  0  0
  1  5  1  0  0  0  0
  1  8  1  0  0  0  0
  1 10  1  0  0  0  0
  1 16  1  0  0  0  0
  2  3  2  0  0  0  0
  2  5  1  0  0  0  0
  2  7  1  0  0  0  0
  3  4  1  0  0  0  0
  3 11  1  0  0  0  0
  4  6  2  0  0  0  0
  4 12  1  0  0  0  0
  5 14  1  0  0  0  0
  5 15  1  0  0  0  0
  6  9  1  0  0  0  0
  6 17  1  0  0  0  0
  7  9  2  0  0  0  0
  7 18  1  0  0  0  0
  8 19  1  0  0  0  0
  8 20  1  0  0  0  0
  8 21  1  0  0  0  0
  9 13  1  0  0  0  0
 10 23  1  0  0  0  0
 10 24  1  0  0  0  0
 10 25  1  0  0  0  0
 11 22  1  0  0  0  0
M  END
> <ConfScore>
-0.67594

$$$$
4agl


 25 25  0  0  0  0  0  0  0  0999 V2000
  124.7439  107.7402  -45.2136 N   0  3  0  1  0  4  0  0  0  0  0  0
  124.0410  105.3610  -44.8150 C   0  0  0  1  0  3  0  0  0  0  0  0
  124.3680  105.1510  -43.4700 C   0  0  0  1  0  3  0  0  0  0  0  0
  124.6850  103.8760  -43.0070 C   0  0  0  1  0  3  0  0  0  0  0  0
  123.6670  106.7390  -45.3390 C   0  0  0  1  0  4  0  0  0  0  0  0
  124.6740  102.7730  -43.8740 C   0  0  0  1  0  3  0  0  0  0  0  0
  124.0340  104.2490  -45.6830 C   0  0  0  1  0  3  0  0  0  0  0  0
  124.4968  108.9886  -45.9630 C   0  0  0  1  0  4  0  0  0  0  0  0
  124.3470  102.9640  -45.2180 C   0  0  0  1  0  3  0  0  0  0  0  0
  125.0842  108.0110  -43.8081 C   0  0  0  1  0  4  0  0  0  0  0  0
  124.4050  106.2300  -42.6310 O   0  0  0  1  0  2  0  0  0  0  0  0
  125.1380  103.6400  -40.9640 I   0  0  0  1  0  1  0  0  0  0  0  0
  124.3140  101.3570  -46.5570 I   0  0  0  1  0  1  0  0  0  0  0  0
  122.7929  107.0982  -44.7758 H   0  0  0  1  0  1  0  0  0  0  0  0
  123.4030  106.6452  -46.4033 H   0  0  0  1  0  1  0  0  0  0  0  0
  125.5602  107.3220  -45.6300 H   0  0  0  1  0  1  0  0  0  0  0  0
  124.9170  101.7840  -43.5040 H   0  0  0  1  0  1  0  0  0  0  0  0
  123.7830  104.3910  -46.7280 H   0  0  0  1  0  1  0  0  0  0  0  0
  124.2634  108.7472  -47.0108 H   0  0  0  1  0  1  0  0  0  0  0  0
  125.3942  109.6234  -45.9238 H   0  0  0  1  0  1  0  0  0  0  0  0
  123.6487  109.5254  -45.5133 H   0  0  0  1  0  1  0  0  0  0  0  0
  124.1620  107.0120  -43.1120 H   0  0  0  1  0  1  0  0  0  0  0  0
  124.2619  108.5628  -43.3309 H   0  0  0  1  0  1  0  0  0  0  0  0
  126.0040  108.6138  -43.7630 H   0  0  0  1  0  1  0  0  0  0  0  0
  125.2431  107.0598  -43.2800 H   0  0  0  1  0  1  0  0  0  0  0  0
  1  5  1  0  0  0  0
  1  8  1  0  0  0  0
  1 10  1  0  0  0  0
  1 16  1  0  0  0  0
  2  3  2  0  0  0  0
  2  5  1  0  0  0  0
  2  7  1  0  0  0  0
  3  4  1  0  0  0  0
  3 11  1  0  0  0  0
  4  6  2  0  0  0  0
  4 12  1  0  0  0  0
  5 14  1  0  0  0  0
  5 15  1  0  0  0  0
  6  9  1  0  0  0  0
  6 17  1  0  0  0  0
  7  9  2  0  0  0  0
  7 18  1  0  0  0  0
  8 19  1  0  0  0  0
  8 20  1  0  0  0  0
  8 21  1  0  0  0  0
  9 13  1  0  0  0  0
 10 23  1  0  0  0  0
 10 24  1  0  0  0  0
 10 25  1  0  0  0  0
 11 22  1  0  0  0  0
M  END
> <ConfScore>
-0.67594

$$$$
4agl


 25 25  0  0  0  0  0  0  0  0999 V2000
  124.7166  107.7584  -45.1463 N   0  3  0  1  0  4  0  0  0  0  0  0
  124.0410  105.3610  -44.8150 C   0  0  0  1  0  3  0  0  0  0  0  0
  124.3680  105.1510  -43.4700 C   0  0  0  1  0  3  0  0  0  0  0  0
  124.6850  103.8760  -43.0070 C   0  0  0  1  0  3  0  0  0  0  0  0
  123.6670  106.7390  -45.3390 C   0  0  0  1  0  4  0  0  0  0  0  0
  124.6740  102.7730  -43.8740 C   0  0  0  1  0  3  0  0  0  0  0  0
  124.0340  104.2490  -45.6830 C   0  0  0  1  0  3  0  0  0  0  0  0
  124.3595  109.0961  -45.6603 C   0  0  0  1  0  4  0  0  0  0  0  0
  124.3470  102.9640  -45.2180 C   0  0  0  1  0  3  0  0  0  0  0  0
  125.1757  107.8200  -43.7499 C   0  0  0  1  0  4  0  0  0  0  0  0
  124.4050  106.2300  -42.6310 O   0  0  0  1  0  2  0  0  0  0  0  0
  125.1380  103.6400  -40.9640 I   0  0  0  1  0  1  0  0  0  0  0  0
  124.3140  101.3570  -46.5570 I   0  0  0  1  0  1  0  0  0  0  0  0
  122.7589  107.0737  -44.8159 H   0  0  0  1  0  1  0  0  0  0  0  0
  123.4586  106.6553  -46.4164 H   0  0  0  1  0  1  0  0  0  0  0  0
  125.5046  107.4508  -45.6931 H   0  0  0  1  0  1  0  0  0  0  0  0
  124.9170  101.7840  -43.5040 H   0  0  0  1  0  1  0  0  0  0  0  0
  123.7830  104.3910  -46.7280 H   0  0  0  1  0  1  0  0  0  0  0  0
  124.0218  109.0098  -46.7039 H   0  0  0  1  0  1  0  0  0  0  0  0
  125.2397  109.7540  -45.6127 H   0  0  0  1  0  1  0  0  0  0  0  0
  123.5510  109.5213  -45.0479 H   0  0  0  1  0  1  0  0  0  0  0  0
  124.1620  107.0120  -43.1120 H   0  0  0  1  0  1  0  0  0  0  0  0
  125.9670  108.5774  -43.6566 H   0  0  0  1  0  1  0  0  0  0  0  0
  125.5721  106.8379  -43.4504 H   0  0  0  1  0  1  0  0  0  0  0  0
  124.3317  108.0888  -43.0984 H   0  0  0  1  0  1  0  0  0  0  0  0
  1  5  1  0  0  0  0
  1  8  1  0  0  0  0
  1 10  1  0  0  0  0
  1 16  1  0  0  0  0
  2  3  2  0  0  0  0
  2  5  1  0  0  0  0
  2  7  1  0  0  0  0
  3  4  1  0  0  0  0
  3 11  1  0  0  0  0
  4  6  2  0  0  0  0
  4 12  1  0  0  0  0
  5 14  1  0  0  0  0
  5 15  1  0  0  0  0
  6  9  1  0  0  0  0
  6 17  1  0  0  0  0
  7  9  2  0  0  0  0
  7 18  1  0  0  0  0
  8 19  1  0  0  0  0
  8 20  1  0  0  0  0
  8 21  1  0  0  0  0
  9 13  1  0  0  0  0
 10 23  1  0  0  0  0
 10 24  1  0  0  0  0
 10 25  1  0  0  0  0
 11 22  1  0  0  0  0
M  END
> <ConfScore>
-0.67594

$$$$
4agl


 25 25  0  0  0  0  0  0  0  0999 V2000
  124.5802  107.2529  -46.3782 N   0  3  0  1  0  4  0  0  0  0  0  0
  124.0410  105.3610  -44.8150 C   0  0  0  1  0  3  0  0  0  0  0  0
  124.3680  105.1510  -43.4700 C   0  0  0  1  0  3  0  0  0  0  0  0
  124.6850  103.8760  -43.0070 C   0  0  0  1  0  3  0  0  0  0  0  0
  123.6670  106.7390  -45.3390 C   0  0  0  1  0  4  0  0  0  0  0  0
  124.6740  102.7730  -43.8740 C   0  0  0  1  0  3  0  0  0  0  0  0
  124.0340  104.2490  -45.6830 C   0  0  0  1  0  3  0  0  0  0  0  0
  124.6759  106.3934  -47.5754 C   0  0  0  1  0  4  0  0  0  0  0  0
  124.3470  102.9640  -45.2180 C   0  0  0  1  0  3  0  0  0  0  0  0
  124.2790  108.6479  -46.7361 C   0  0  0  1  0  4  0  0  0  0  0  0
  124.4050  106.2300  -42.6310 O   0  0  0  1  0  2  0  0  0  0  0  0
  125.1380  103.6400  -40.9640 I   0  0  0  1  0  1  0  0  0  0  0  0
  124.3140  101.3570  -46.5570 I   0  0  0  1  0  1  0  0  0  0  0  0
  123.6719  107.4438  -44.4943 H   0  0  0  1  0  1  0  0  0  0  0  0
  122.6533  106.6847  -45.7642 H   0  0  0  1  0  1  0  0  0  0  0  0
  125.4979  107.2560  -45.9630 H   0  0  0  1  0  1  0  0  0  0  0  0
  124.9170  101.7840  -43.5040 H   0  0  0  1  0  1  0  0  0  0  0  0
  123.7830  104.3910  -46.7280 H   0  0  0  1  0  1  0  0  0  0  0  0
  124.9188  105.3648  -47.2698 H   0  0  0  1  0  1  0  0  0  0  0  0
  125.4659  106.7755  -48.2386 H   0  0  0  1  0  1  0  0  0  0  0  0
  123.7147  106.3993  -48.1098 H   0  0  0  1  0  1  0  0  0  0  0  0
  124.1620  107.0120  -43.1120 H   0  0  0  1  0  1  0  0  0  0  0  0
  124.1978  109.2523  -45.8215 H   0  0  0  1  0  1  0  0  0  0  0  0
  123.3270  108.6879  -47.2869 H   0  0  0  1  0  1  0  0  0  0  0  0
  125.0854  109.0459  -47.3687 H   0  0  0  1  0  1  0  0  0  0  0  0
  1  5  1  0  0  0  0
  1  8  1  0  0  0  0
  1 10  1  0  0  0  0
  1 16  1  0  0  0  0
  2  3  2  0  0  0  0
  2  5  1  0  0  0  0
  2  7  1  0  0  0  0
  3  4  1  0  0  0  0
  3 11  1  0  0  0  0
  4  6  2  0  0  0  0
  4 12  1  0  0  0  0
  5 14  1  0  0  0  0
  5 15  1  0  0  0  0
  6  9  1  0  0  0  0
  6 17  1  0  0  0  0
  7  9  2  0  0  0  0
  7 18  1  0  0  0  0
  8 19  1  0  0  0  0
  8 20  1  0  0  0  0
  8 21  1  0  0  0  0
  9 13  1  0  0  0  0
 10 23  1  0  0  0  0
 10 24  1  0  0  0  0
 10 25  1  0  0  0  0
 11 22  1  0  0  0  0
M  END
> <ConfScore>
-0.653466

$$$$
4agl


 25 25  0  0  0  0  0  0  0  0999 V2000
  124.5802  107.2529  -46.3782 N   0  3  0  1  0  4  0  0  0  0  0  0
  124.0410  105.3610  -44.8150 C   0  0  0  1  0  3  0  0  0  0  0  0
  124.3680  105.1510  -43.4700 C   0  0  0  1  0  3  0  0  0  0  0  0
  124.6850  103.8760  -43.0070 C   0  0  0  1  0  3  0  0  0  0  0  0
  123.6670  106.7390  -45.3390 C   0  0  0  1  0  4  0  0  0  0  0  0
  124.6740  102.7730  -43.8740 C   0  0  0  1  0  3  0  0  0  0  0  0
  124.0340  104.2490  -45.6830 C   0  0  0  1  0  3  0  0  0  0  0  0
  124.8206  106.3103  -47.4894 C   0  0  0  1  0  4  0  0  0  0  0  0
  124.3470  102.9640  -45.2180 C   0  0  0  1  0  3  0  0  0  0  0  0
  124.1661  108.5760  -46.8709 C   0  0  0  1  0  4  0  0  0  0  0  0
  124.4050  106.2300  -42.6310 O   0  0  0  1  0  2  0  0  0  0  0  0
  125.1380  103.6400  -40.9640 I   0  0  0  1  0  1  0  0  0  0  0  0
  124.3140  101.3570  -46.5570 I   0  0  0  1  0  1  0  0  0  0  0  0
  123.6719  107.4438  -44.4943 H   0  0  0  1  0  1  0  0  0  0  0  0
  122.6533  106.6847  -45.7642 H   0  0  0  1  0  1  0  0  0  0  0  0
  125.4702  107.3824  -45.9248 H   0  0  0  1  0  1  0  0  0  0  0  0
  124.9170  101.7840  -43.5040 H   0  0  0  1  0  1  0  0  0  0  0  0
  123.7830  104.3910  -46.7280 H   0  0  0  1  0  1  0  0  0  0  0  0
  123.8918  106.1758  -48.0637 H   0  0  0  1  0  1  0  0  0  0  0  0
  125.1448  105.3406  -47.0837 H   0  0  0  1  0  1  0  0  0  0  0  0
  125.6039  106.7116  -48.1488 H   0  0  0  1  0  1  0  0  0  0  0  0
  124.1620  107.0120  -43.1120 H   0  0  0  1  0  1  0  0  0  0  0  0
  123.9794  109.2436  -46.0178 H   0  0  0  1  0  1  0  0  0  0  0  0
  123.2449  108.4745  -47.4646 H   0  0  0  1  0  1  0  0  0  0  0  0
  124.9629  108.9983  -47.5000 H   0  0  0  1  0  1  0  0  0  0  0  0
  1  5  1  0  0  0  0
  1  8  1  0  0  0  0
  1 10  1  0  0  0  0
  1 16  1  0  0  0  0
  2  3  2  0  0  0  0
  2  5  1  0  0  0  0
  2  7  1  0  0  0  0
  3  4  1  0  0  0  0
  3 11  1  0  0  0  0
  4  6  2  0  0  0  0
  4 12  1  0  0  0  0
  5 14  1  0  0  0  0
  5 15  1  0  0  0  0
  6  9  1  0  0  0  0
  6 17  1  0  0  0  0
  7  9  2  0  0  0  0
  7 18  1  0  0  0  0
  8 19  1  0  0  0  0
  8 20  1  0  0  0  0
  8 21  1  0  0  0  0
  9 13  1  0  0  0  0
 10 23  1  0  0  0  0
 10 24  1  0  0  0  0
 10 25  1  0  0  0  0
 11 22  1  0  0  0  0
M  END
> <ConfScore>
-0.653466

$$$$
4agl


 25 25  0  0  0  0  0  0  0  0999 V2000
  124.5868  107.2580  -46.3698 N   0  3  0  1  0  4  0  0  0  0  0  0
  124.0410  105.3610  -44.8150 C   0  0  0  1  0  3  0  0  0  0  0  0
  124.3680  105.1510  -43.4700 C   0  0  0  1  0  3  0  0  0  0  0  0
  124.6850  103.8760  -43.0070 C   0  0  0  1  0  3  0  0  0  0  0  0
  123.6670  106.7390  -45.3390 C   0  0  0  1  0  4  0  0  0  0  0  0
  124.6740  102.7730  -43.8740 C   0  0  0  1  0  3  0  0  0  0  0  0
  124.0340  104.2490  -45.6830 C   0  0  0  1  0  3  0  0  0  0  0  0
  124.7662  106.3572  -47.5264 C   0  0  0  1  0  4  0  0  0  0  0  0
  124.3470  102.9640  -45.2180 C   0  0  0  1  0  3  0  0  0  0  0  0
  124.2269  108.6197  -46.7950 C   0  0  0  1  0  4  0  0  0  0  0  0
  124.4050  106.2300  -42.6310 O   0  0  0  1  0  2  0  0  0  0  0  0
  125.1380  103.6400  -40.9640 I   0  0  0  1  0  1  0  0  0  0  0  0
  124.3140  101.3570  -46.5570 I   0  0  0  1  0  1  0  0  0  0  0  0
  123.6631  107.4420  -44.4928 H   0  0  0  1  0  1  0  0  0  0  0  0
  122.6569  106.6826  -45.7724 H   0  0  0  1  0  1  0  0  0  0  0  0
  125.4888  107.3259  -45.9266 H   0  0  0  1  0  1  0  0  0  0  0  0
  124.9170  101.7840  -43.5040 H   0  0  0  1  0  1  0  0  0  0  0  0
  123.7830  104.3910  -46.7280 H   0  0  0  1  0  1  0  0  0  0  0  0
  125.4628  106.8161  -48.2439 H   0  0  0  1  0  1  0  0  0  0  0  0
  123.7948  106.1892  -48.0142 H   0  0  0  1  0  1  0  0  0  0  0  0
  125.1749  105.3956  -47.1833 H   0  0  0  1  0  1  0  0  0  0  0  0
  124.1620  107.0120  -43.1120 H   0  0  0  1  0  1  0  0  0  0  0  0
  125.0326  109.0353  -47.4167 H   0  0  0  1  0  1  0  0  0  0  0  0
  124.0842  109.2553  -45.9078 H   0  0  0  1  0  1  0  0  0  0  0  0
  123.2942  108.5872  -47.3764 H   0  0  0  1  0  1  0  0  0  0  0  0
  1  5  1  0  0  0  0
  1  8  1  0  0  0  0
  1 10  1  0  0  0  0
  1 16  1  0  0  0  0
  2  3  2  0  0  0  0
  2  5  1  0  0  0  0
  2  7  1  0  0  0  0
  3  4  1  0  0  0  0
  3 11  1  0  0  0  0
  4  6  2  0  0  0  0
  4 12  1  0  0  0  0
  5 14  1  0  0  0  0
  5 15  1  0  0  0  0
  6  9  1  0  0  0  0
  6 17  1  0  0  0  0
  7  9  2  0  0  0  0
  7 18  1  0  0  0  0
  8 19  1  0  0  0  0
  8 20  1  0  0  0  0
  8 21  1  0  0  0  0
  9 13  1  0  0  0  0
 10 23  1  0  0  0  0
 10 24  1  0  0  0  0
 10 25  1  0  0  0  0
 11 22  1  0  0  0  0
M  END
> <ConfScore>
-0.653466

$$$$
4agl


 25 25  0  0  0  0  0  0  0  0999 V2000
  124.5868  107.2580  -46.3698 N   0  3  0  1  0  4  0  0  0  0  0  0
  124.0410  105.3610  -44.8150 C   0  0  0  1  0  3  0  0  0  0  0  0
  124.3680  105.1510  -43.4700 C   0  0  0  1  0  3  0  0  0  0  0  0
  124.6850  103.8760  -43.0070 C   0  0  0  1  0  3  0  0  0  0  0  0
  123.6670  106.7390  -45.3390 C   0  0  0  1  0  4  0  0  0  0  0  0
  124.6740  102.7730  -43.8740 C   0  0  0  1  0  3  0  0  0  0  0  0
  124.0340  104.2490  -45.6830 C   0  0  0  1  0  3  0  0  0  0  0  0
  124.8390  106.3184  -47.4810 C   0  0  0  1  0  4  0  0  0  0  0  0
  124.3470  102.9640  -45.2180 C   0  0  0  1  0  3  0  0  0  0  0  0
  124.1727  108.5808  -46.8629 C   0  0  0  1  0  4  0  0  0  0  0  0
  124.4050  106.2300  -42.6310 O   0  0  0  1  0  2  0  0  0  0  0  0
  125.1380  103.6400  -40.9640 I   0  0  0  1  0  1  0  0  0  0  0  0
  124.3140  101.3570  -46.5570 I   0  0  0  1  0  1  0  0  0  0  0  0
  123.6631  107.4420  -44.4928 H   0  0  0  1  0  1  0  0  0  0  0  0
  122.6569  106.6826  -45.7724 H   0  0  0  1  0  1  0  0  0  0  0  0
  125.4729  107.3892  -45.9090 H   0  0  0  1  0  1  0  0  0  0  0  0
  124.9170  101.7840  -43.5040 H   0  0  0  1  0  1  0  0  0  0  0  0
  123.7830  104.3910  -46.7280 H   0  0  0  1  0  1  0  0  0  0  0  0
  125.5307  106.7798  -48.2015 H   0  0  0  1  0  1  0  0  0  0  0  0
  123.8895  106.0819  -47.9836 H   0  0  0  1  0  1  0  0  0  0  0  0
  125.2846  105.3936  -47.0864 H   0  0  0  1  0  1  0  0  0  0  0  0
  124.1620  107.0120  -43.1120 H   0  0  0  1  0  1  0  0  0  0  0  0
  123.2485  108.4811  -47.4498 H   0  0  0  1  0  1  0  0  0  0  0  0
  124.9668  109.0002  -47.4992 H   0  0  0  1  0  1  0  0  0  0  0  0
  123.9949  109.2507  -46.0093 H   0  0  0  1  0  1  0  0  0  0  0  0
  1  5  1  0  0  0  0
  1  8  1  0  0  0  0
  1 10  1  0  0  0  0
  1 16  1  0  0  0  0
  2  3  2  0  0  0  0
  2  5  1  0  0  0  0
  2  7  1  0  0  0  0
  3  4  1  0  0  0  0
  3 11  1  0  0  0  0
  4  6  2  0  0  0  0
  4 12  1  0  0  0  0
  5 14  1  0  0  0  0
  5 15  1  0  0  0  0
  6  9  1  0  0  0  0
  6 17  1  0  0  0  0
  7  9  2  0  0  0  0
  7 18  1  0  0  0  0
  8 19  1  0  0  0  0
  8 20  1  0  0  0  0
  8 21  1  0  0  0  0
  9 13  1  0  0  0  0
 10 23  1  0  0  0  0
 10 24  1  0  0  0  0
 10 25  1  0  0  0  0
 11 22  1  0  0  0  0
M  END
> <ConfScore>
-0.653466

$$$$
4agl


 25 25  0  0  0  0  0  0  0  0999 V2000
  124.5735  107.2480  -46.3865 N   0  3  0  1  0  4  0  0  0  0  0  0
  124.0410  105.3610  -44.8150 C   0  0  0  1  0  3  0  0  0  0  0  0
  124.3680  105.1510  -43.4700 C   0  0  0  1  0  3  0  0  0  0  0  0
  124.6850  103.8760  -43.0070 C   0  0  0  1  0  3  0  0  0  0  0  0
  123.6670  106.7390  -45.3390 C   0  0  0  1  0  4  0  0  0  0  0  0
  124.6740  102.7730  -43.8740 C   0  0  0  1  0  3  0  0  0  0  0  0
  124.0340  104.2490  -45.6830 C   0  0  0  1  0  3  0  0  0  0  0  0
  124.8393  106.2848  -47.4740 C   0  0  0  1  0  4  0  0  0  0  0  0
  124.3470  102.9640  -45.2180 C   0  0  0  1  0  3  0  0  0  0  0  0
  124.1331  108.5497  -46.9120 C   0  0  0  1  0  4  0  0  0  0  0  0
  124.4050  106.2300  -42.6310 O   0  0  0  1  0  2  0  0  0  0  0  0
  125.1380  103.6400  -40.9640 I   0  0  0  1  0  1  0  0  0  0  0  0
  124.3140  101.3570  -46.5570 I   0  0  0  1  0  1  0  0  0  0  0  0
  123.6807  107.4456  -44.4959 H   0  0  0  1  0  1  0  0  0  0  0  0
  122.6499  106.6869  -45.7561 H   0  0  0  1  0  1  0  0  0  0  0  0
  125.4585  107.4075  -45.9327 H   0  0  0  1  0  1  0  0  0  0  0  0
  124.9170  101.7840  -43.5040 H   0  0  0  1  0  1  0  0  0  0  0  0
  123.7830  104.3910  -46.7280 H   0  0  0  1  0  1  0  0  0  0  0  0
  125.1823  105.3319  -47.0441 H   0  0  0  1  0  1  0  0  0  0  0  0
  125.6169  106.6884  -48.1391 H   0  0  0  1  0  1  0  0  0  0  0  0
  123.9171  106.1162  -48.0490 H   0  0  0  1  0  1  0  0  0  0  0  0
  124.1620  107.0120  -43.1120 H   0  0  0  1  0  1  0  0  0  0  0  0
  123.2190  108.4151  -47.5076 H   0  0  0  1  0  1  0  0  0  0  0  0
  124.9245  108.9755  -47.5475 H   0  0  0  1  0  1  0  0  0  0  0  0
  123.9284  109.2324  -46.0747 H   0  0  0  1  0  1  0  0  0  0  0  0
  1  5  1  0  0  0  0
  1  8  1  0  0  0  0
  1 10  1  0  0  0  0
  1 16  1  0  0  0  0
  2  3  2  0  0  0  0
  2  5  1  0  0  0  0
  2  7  1  0  0  0  0
  3  4  1  0  0  0  0
  3 11  1  0  0  0  0
  4  6  2  0  0  0  0
  4 12  1  0  0  0  0
  5 14  1  0  0  0  0
  5 15  1  0  0  0  0
  6  9  1  0  0  0  0
  6 17  1  0  0  0  0
  7  9  2  0  0  0  0
  7 18  1  0  0  0  0
  8 19  1  0  0  0  0
  8 20  1  0  0  0  0
  8 21  1  0  0  0  0
  9 13  1  0  0  0  0
 10 23  1  0  0  0  0
 10 24  1  0  0  0  0
 10 25  1  0  0  0  0
 11 22  1  0  0  0  0
M  END
> <ConfScore>
-0.653466

$$$$
4agl


 25 25  0  0  0  0  0  0  0  0999 V2000
  124.5829  107.2550  -46.3748 N   0  3  0  1  0  4  0  0  0  0  0  0
  124.0410  105.3610  -44.8150 C   0  0  0  1  0  3  0  0  0  0  0  0
  124.3680  105.1510  -43.4700 C   0  0  0  1  0  3  0  0  0  0  0  0
  124.6850  103.8760  -43.0070 C   0  0  0  1  0  3  0  0  0  0  0  0
  123.6670  106.7390  -45.3390 C   0  0  0  1  0  4  0  0  0  0  0  0
  124.6740  102.7730  -43.8740 C   0  0  0  1  0  3  0  0  0  0  0  0
  124.0340  104.2490  -45.6830 C   0  0  0  1  0  3  0  0  0  0  0  0
  124.1628  108.5425  -46.9639 C   0  0  0  1  0  4  0  0  0  0  0  0
  124.3470  102.9640  -45.2180 C   0  0  0  1  0  3  0  0  0  0  0  0
  125.9760  107.3039  -45.9043 C   0  0  0  1  0  4  0  0  0  0  0  0
  124.4050  106.2300  -42.6310 O   0  0  0  1  0  2  0  0  0  0  0  0
  125.1380  103.6400  -40.9640 I   0  0  0  1  0  1  0  0  0  0  0  0
  124.3140  101.3570  -46.5570 I   0  0  0  1  0  1  0  0  0  0  0  0
  123.6683  107.4431  -44.4937 H   0  0  0  1  0  1  0  0  0  0  0  0
  122.6548  106.6839  -45.7675 H   0  0  0  1  0  1  0  0  0  0  0  0
  124.5580  106.5836  -47.1253 H   0  0  0  1  0  1  0  0  0  0  0  0
  124.9170  101.7840  -43.5040 H   0  0  0  1  0  1  0  0  0  0  0  0
  123.7830  104.3910  -46.7280 H   0  0  0  1  0  1  0  0  0  0  0  0
  123.1247  108.4618  -47.3192 H   0  0  0  1  0  1  0  0  0  0  0  0
  124.8217  108.7912  -47.8089 H   0  0  0  1  0  1  0  0  0  0  0  0
  124.2289  109.3338  -46.2029 H   0  0  0  1  0  1  0  0  0  0  0  0
  124.1620  107.0120  -43.1120 H   0  0  0  1  0  1  0  0  0  0  0  0
  126.2468  106.3369  -45.4573 H   0  0  0  1  0  1  0  0  0  0  0  0
  126.0806  108.0981  -45.1494 H   0  0  0  1  0  1  0  0  0  0  0  0
  126.6421  107.5153  -46.7532 H   0  0  0  1  0  1  0  0  0  0  0  0
  1  5  1  0  0  0  0
  1  8  1  0  0  0  0
  1 10  1  0  0  0  0
  1 16  1  0  0  0  0
  2  3  2  0  0  0  0
  2  5  1  0  0  0  0
  2  7  1  0  0  0  0
  3  4  1  0  0  0  0
  3 11  1  0  0  0  0
  4  6  2  0  0  0  0
  4 12  1  0  0  0  0
  5 14  1  0  0  0  0
  5 15  1  0  0  0  0
  6  9  1  0  0  0  0
  6 17  1  0  0  0  0
  7  9  2  0  0  0  0
  7 18  1  0  0  0  0
  8 19  1  0  0  0  0
  8 20  1  0  0  0  0
  8 21  1  0  0  0  0
  9 13  1  0  0  0  0
 10 23  1  0  0  0  0
 10 24  1  0  0  0  0
 10 25  1  0  0  0  0
 11 22  1  0  0  0  0
M  END
> <ConfScore>
-0.647316

$$$$
4agl


 25 25  0  0  0  0  0  0  0  0999 V2000
  124.5735  107.2480  -46.3865 N   0  3  0  1  0  4  0  0  0  0  0  0
  124.0410  105.3610  -44.8150 C   0  0  0  1  0  3  0  0  0  0  0  0
  124.3680  105.1510  -43.4700 C   0  0  0  1  0  3  0  0  0  0  0  0
  124.6850  103.8760  -43.0070 C   0  0  0  1  0  3  0  0  0  0  0  0
  123.6670  106.7390  -45.3390 C   0  0  0  1  0  4  0  0  0  0  0  0
  124.6740  102.7730  -43.8740 C   0  0  0  1  0  3  0  0  0  0  0  0
  124.0340  104.2490  -45.6830 C   0  0  0  1  0  3  0  0  0  0  0  0
  125.9935  107.2963  -45.9836 C   0  0  0  1  0  4  0  0  0  0  0  0
  124.3470  102.9640  -45.2180 C   0  0  0  1  0  3  0  0  0  0  0  0
  124.3967  106.5366  -47.6621 C   0  0  0  1  0  4  0  0  0  0  0  0
  124.4050  106.2300  -42.6310 O   0  0  0  1  0  2  0  0  0  0  0  0
  125.1380  103.6400  -40.9640 I   0  0  0  1  0  1  0  0  0  0  0  0
  124.3140  101.3570  -46.5570 I   0  0  0  1  0  1  0  0  0  0  0  0
  123.6807  107.4456  -44.4959 H   0  0  0  1  0  1  0  0  0  0  0  0
  122.6499  106.6869  -45.7561 H   0  0  0  1  0  1  0  0  0  0  0  0
  124.2976  108.2027  -46.5509 H   0  0  0  1  0  1  0  0  0  0  0  0
  124.9170  101.7840  -43.5040 H   0  0  0  1  0  1  0  0  0  0  0  0
  123.7830  104.3910  -46.7280 H   0  0  0  1  0  1  0  0  0  0  0  0
  126.0875  107.8496  -45.0372 H   0  0  0  1  0  1  0  0  0  0  0  0
  126.5791  107.8031  -46.7647 H   0  0  0  1  0  1  0  0  0  0  0  0
  126.3722  106.2727  -45.8483 H   0  0  0  1  0  1  0  0  0  0  0  0
  124.1620  107.0120  -43.1120 H   0  0  0  1  0  1  0  0  0  0  0  0
  125.0768  106.9590  -48.4154 H   0  0  0  1  0  1  0  0  0  0  0  0
  123.3566  106.6493  -48.0039 H   0  0  0  1  0  1  0  0  0  0  0  0
  124.6226  105.4698  -47.5208 H   0  0  0  1  0  1  0  0  0  0  0  0
  1  5  1  0  0  0  0
  1  8  1  0  0  0  0
  1 10  1  0  0  0  0
  1 16  1  0  0  0  0
  2  3  2  0  0  0  0
  2  5  1  0  0  0  0
  2  7  1  0  0  0  0
  3  4  1  0  0  0  0
  3 11  1  0  0  0  0
  4  6  2  0  0  0  0
  4 12  1  0  0  0  0
  5 14  1  0  0  0  0
  5 15  1  0  0  0  0
  6  9  1  0  0  0  0
  6 17  1  0  0  0  0
  7  9  2  0  0  0  0
  7 18  1  0  0  0  0
  8 19  1  0  0  0  0
  8 20  1  0  0  0  0
  8 21  1  0  0  0  0
  9 13  1  0  0  0  0
 10 23  1  0  0  0  0
 10 24  1  0  0  0  0
 10 25  1  0  0  0  0
 11 22  1  0  0  0  0
M  END
> <ConfScore>
-0.64354

$$$$
4agl


 25 25  0  0  0  0  0  0  0  0999 V2000
  124.5868  107.2580  -46.3698 N   0  3  0  1  0  4  0  0  0  0  0  0
  124.0410  105.3610  -44.8150 C   0  0  0  1  0  3  0  0  0  0  0  0
  124.3680  105.1510  -43.4700 C   0  0  0  1  0  3  0  0  0  0  0  0
  124.6850  103.8760  -43.0070 C   0  0  0  1  0  3  0  0  0  0  0  0
  123.6670  106.7390  -45.3390 C   0  0  0  1  0  4  0  0  0  0  0  0
  124.6740  102.7730  -43.8740 C   0  0  0  1  0  3  0  0  0  0  0  0
  124.0340  104.2490  -45.6830 C   0  0  0  1  0  3  0  0  0  0  0  0
  125.9637  107.4888  -45.8881 C   0  0  0  1  0  4  0  0  0  0  0  0
  124.3470  102.9640  -45.2180 C   0  0  0  1  0  3  0  0  0  0  0  0
  124.5708  106.4339  -47.5885 C   0  0  0  1  0  4  0  0  0  0  0  0
  124.4050  106.2300  -42.6310 O   0  0  0  1  0  2  0  0  0  0  0  0
  125.1380  103.6400  -40.9640 I   0  0  0  1  0  1  0  0  0  0  0  0
  124.3140  101.3570  -46.5570 I   0  0  0  1  0  1  0  0  0  0  0  0
  123.6631  107.4420  -44.4928 H   0  0  0  1  0  1  0  0  0  0  0  0
  122.6569  106.6826  -45.7724 H   0  0  0  1  0  1  0  0  0  0  0  0
  124.2275  108.1619  -46.6312 H   0  0  0  1  0  1  0  0  0  0  0  0
  124.9170  101.7840  -43.5040 H   0  0  0  1  0  1  0  0  0  0  0  0
  123.7830  104.3910  -46.7280 H   0  0  0  1  0  1  0  0  0  0  0  0
  126.5813  107.8733  -46.7136 H   0  0  0  1  0  1  0  0  0  0  0  0
  126.3878  106.5420  -45.5228 H   0  0  0  1  0  1  0  0  0  0  0  0
  125.9484  108.2231  -45.0696 H   0  0  0  1  0  1  0  0  0  0  0  0
  124.1620  107.0120  -43.1120 H   0  0  0  1  0  1  0  0  0  0  0  0
  125.1193  106.9509  -48.3887 H   0  0  0  1  0  1  0  0  0  0  0  0
  123.5300  106.2687  -47.9060 H   0  0  0  1  0  1  0  0  0  0  0  0
  125.0491  105.4655  -47.3821 H   0  0  0  1  0  1  0  0  0  0  0  0
  1  5  1  0  0  0  0
  1  8  1  0  0  0  0
  1 10  1  0  0  0  0
  1 16  1  0  0  0  0
  2  3  2  0  0  0  0
  2  5  1  0  0  0  0
  2  7  1  0  0  0  0
  3  4  1  0  0  0  0
  3 11  1  0  0  0  0
  4  6  2  0  0  0  0
  4 12  1  0  0  0  0
  5 14  1  0  0  0  0
  5 15  1  0  0  0  0
  6  9  1  0  0  0  0
  6 17  1  0  0  0  0
  7  9  2  0  0  0  0
  7 18  1  0  0  0  0
  8 19  1  0  0  0  0
  8 20  1  0  0  0  0
  8 21  1  0  0  0  0
  9 13  1  0  0  0  0
 10 23  1  0  0  0  0
 10 24  1  0  0  0  0
 10 25  1  0  0  0  0
 11 22  1  0  0  0  0
M  END
> <ConfScore>
-0.64354

$$$$
4agl


 25 25  0  0  0  0  0  0  0  0999 V2000
  122.7460  106.7119  -46.4919 N   0  3  0  1  0  4  0  0  0  0  0  0
  124.0410  105.3610  -44.8150 C   0  0  0  1  0  3  0  0  0  0  0  0
  124.3680  105.1510  -43.4700 C   0  0  0  1  0  3  0  0  0  0  0  0
  124.6850  103.8760  -43.0070 C   0  0  0  1  0  3  0  0  0  0  0  0
  123.6670  106.7390  -45.3390 C   0  0  0  1  0  4  0  0  0  0  0  0
  124.6740  102.7730  -43.8740 C   0  0  0  1  0  3  0  0  0  0  0  0
  124.0340  104.2490  -45.6830 C   0  0  0  1  0  3  0  0  0  0  0  0
  121.4431  106.0771  -46.2080 C   0  0  0  1  0  4  0  0  0  0  0  0
  124.3470  102.9640  -45.2180 C   0  0  0  1  0  3  0  0  0  0  0  0
  122.5794  108.0431  -47.0959 C   0  0  0  1  0  4  0  0  0  0  0  0
  124.4050  106.2300  -42.6310 O   0  0  0  1  0  2  0  0  0  0  0  0
  125.1380  103.6400  -40.9640 I   0  0  0  1  0  1  0  0  0  0  0  0
  124.3140  101.3570  -46.5570 I   0  0  0  1  0  1  0  0  0  0  0  0
  124.5892  107.2554  -45.6445 H   0  0  0  1  0  1  0  0  0  0  0  0
  123.1859  107.3009  -44.5240 H   0  0  0  1  0  1  0  0  0  0  0  0
  123.1912  106.1358  -47.1879 H   0  0  0  1  0  1  0  0  0  0  0  0
  124.9170  101.7840  -43.5040 H   0  0  0  1  0  1  0  0  0  0  0  0
  123.7830  104.3910  -46.7280 H   0  0  0  1  0  1  0  0  0  0  0  0
  121.6081  105.0793  -45.7747 H   0  0  0  1  0  1  0  0  0  0  0  0
  120.8707  105.9814  -47.1424 H   0  0  0  1  0  1  0  0  0  0  0  0
  120.8798  106.6972  -45.4954 H   0  0  0  1  0  1  0  0  0  0  0  0
  124.1620  107.0120  -43.1120 H   0  0  0  1  0  1  0  0  0  0  0  0
  121.9018  107.9726  -47.9587 H   0  0  0  1  0  1  0  0  0  0  0  0
  123.5583  108.4199  -47.4292 H   0  0  0  1  0  1  0  0  0  0  0  0
  122.1554  108.7325  -46.3516 H   0  0  0  1  0  1  0  0  0  0  0  0
  1  5  1  0  0  0  0
  1  8  1  0  0  0  0
  1 10  1  0  0  0  0
  1 16  1  0  0  0  0
  2  3  2  0  0  0  0
  2  5  1  0  0  0  0
  2  7  1  0  0  0  0
  3  4  1  0  0  0  0
  3 11  1  0  0  0  0
  4  6  2  0  0  0  0
  4 12  1  0  0  0  0
  5 14  1  0  0  0  0
  5 15  1  0  0  0  0
  6  9  1  0  0  0  0
  6 17  1  0  0  0  0
  7  9  2  0  0  0  0
  7 18  1  0  0  0  0
  8 19  1  0  0  0  0
  8 20  1  0  0  0  0
  8 21  1  0  0  0  0
  9 13  1  0  0  0  0
 10 23  1  0  0  0  0
 10 24  1  0  0  0  0
 10 25  1  0  0  0  0
 11 22  1  0  0  0  0
M  END
> <ConfScore>
-0.624217

$$$$
4agl


 25 25  0  0  0  0  0  0  0  0999 V2000
  122.7460  106.7119  -46.4919 N   0  3  0  1  0  4  0  0  0  0  0  0
  124.0410  105.3610  -44.8150 C   0  0  0  1  0  3  0  0  0  0  0  0
  124.3680  105.1510  -43.4700 C   0  0  0  1  0  3  0  0  0  0  0  0
  124.6850  103.8760  -43.0070 C   0  0  0  1  0  3  0  0  0  0  0  0
  123.6670  106.7390  -45.3390 C   0  0  0  1  0  4  0  0  0  0  0  0
  124.6740  102.7730  -43.8740 C   0  0  0  1  0  3  0  0  0  0  0  0
  124.0340  104.2490  -45.6830 C   0  0  0  1  0  3  0  0  0  0  0  0
  122.2288  108.0392  -46.8816 C   0  0  0  1  0  4  0  0  0  0  0  0
  124.3470  102.9640  -45.2180 C   0  0  0  1  0  3  0  0  0  0  0  0
  123.3222  105.9967  -47.6412 C   0  0  0  1  0  4  0  0  0  0  0  0
  124.4050  106.2300  -42.6310 O   0  0  0  1  0  2  0  0  0  0  0  0
  125.1380  103.6400  -40.9640 I   0  0  0  1  0  1  0  0  0  0  0  0
  124.3140  101.3570  -46.5570 I   0  0  0  1  0  1  0  0  0  0  0  0
  124.5892  107.2554  -45.6445 H   0  0  0  1  0  1  0  0  0  0  0  0
  123.1859  107.3009  -44.5240 H   0  0  0  1  0  1  0  0  0  0  0  0
  121.9460  106.1772  -46.1942 H   0  0  0  1  0  1  0  0  0  0  0  0
  124.9170  101.7840  -43.5040 H   0  0  0  1  0  1  0  0  0  0  0  0
  123.7830  104.3910  -46.7280 H   0  0  0  1  0  1  0  0  0  0  0  0
  121.7914  108.5350  -46.0022 H   0  0  0  1  0  1  0  0  0  0  0  0
  121.4575  107.9189  -47.6566 H   0  0  0  1  0  1  0  0  0  0  0  0
  123.0517  108.6529  -47.2763 H   0  0  0  1  0  1  0  0  0  0  0  0
  124.1620  107.0120  -43.1120 H   0  0  0  1  0  1  0  0  0  0  0  0
  123.7118  105.0235  -47.3104 H   0  0  0  1  0  1  0  0  0  0  0  0
  124.1421  106.5924  -48.0705 H   0  0  0  1  0  1  0  0  0  0  0  0
  122.5446  105.8410  -48.4029 H   0  0  0  1  0  1  0  0  0  0  0  0
  1  5  1  0  0  0  0
  1  8  1  0  0  0  0
  1 10  1  0  0  0  0
  1 16  1  0  0  0  0
  2  3  2  0  0  0  0
  2  5  1  0  0  0  0
  2  7  1  0  0  0  0
  3  4  1  0  0  0  0
  3 11  1  0  0  0  0
  4  6  2  0  0  0  0
  4 12  1  0  0  0  0
  5 14  1  0  0  0  0
  5 15  1  0  0  0  0
  6  9  1  0  0  0  0
  6 17  1  0  0  0  0
  7  9  2  0  0  0  0
  7 18  1  0  0  0  0
  8 19  1  0  0  0  0
  8 20  1  0  0  0  0
  8 21  1  0  0  0  0
  9 13  1  0  0  0  0
 10 23  1  0  0  0  0
 10 24  1  0  0  0  0
 10 25  1  0  0  0  0
 11 22  1  0  0  0  0
M  END
> <ConfScore>
-0.618067

$$$$
4agl


 25 25  0  0  0  0  0  0  0  0999 V2000
  122.7406  106.7121  -46.4875 N   0  3  0  1  0  4  0  0  0  0  0  0
  124.0410  105.3610  -44.8150 C   0  0  0  1  0  3  0  0  0  0  0  0
  124.3680  105.1510  -43.4700 C   0  0  0  1  0  3  0  0  0  0  0  0
  124.6850  103.8760  -43.0070 C   0  0  0  1  0  3  0  0  0  0  0  0
  123.6670  106.7390  -45.3390 C   0  0  0  1  0  4  0  0  0  0  0  0
  124.6740  102.7730  -43.8740 C   0  0  0  1  0  3  0  0  0  0  0  0
  124.0340  104.2490  -45.6830 C   0  0  0  1  0  3  0  0  0  0  0  0
  122.2239  108.0398  -46.8765 C   0  0  0  1  0  4  0  0  0  0  0  0
  124.3470  102.9640  -45.2180 C   0  0  0  1  0  3  0  0  0  0  0  0
  123.3100  105.9944  -47.6386 C   0  0  0  1  0  4  0  0  0  0  0  0
  124.4050  106.2300  -42.6310 O   0  0  0  1  0  2  0  0  0  0  0  0
  125.1380  103.6400  -40.9640 I   0  0  0  1  0  1  0  0  0  0  0  0
  124.3140  101.3570  -46.5570 I   0  0  0  1  0  1  0  0  0  0  0  0
  124.5886  107.2533  -45.6495 H   0  0  0  1  0  1  0  0  0  0  0  0
  123.1908  107.3028  -44.5225 H   0  0  0  1  0  1  0  0  0  0  0  0
  121.9410  106.1792  -46.1853 H   0  0  0  1  0  1  0  0  0  0  0  0
  124.9170  101.7840  -43.5040 H   0  0  0  1  0  1  0  0  0  0  0  0
  123.7830  104.3910  -46.7280 H   0  0  0  1  0  1  0  0  0  0  0  0
  123.0470  108.6510  -47.2758 H   0  0  0  1  0  1  0  0  0  0  0  0
  121.7912  108.5371  -45.9959 H   0  0  0  1  0  1  0  0  0  0  0  0
  121.4487  107.9210  -47.6476 H   0  0  0  1  0  1  0  0  0  0  0  0
  124.1620  107.0120  -43.1120 H   0  0  0  1  0  1  0  0  0  0  0  0
  123.6995  105.0209  -47.3084 H   0  0  0  1  0  1  0  0  0  0  0  0
  124.1290  106.5880  -48.0725 H   0  0  0  1  0  1  0  0  0  0  0  0
  122.5285  105.8391  -48.3964 H   0  0  0  1  0  1  0  0  0  0  0  0
  1  5  1  0  0  0  0
  1  8  1  0  0  0  0
  1 10  1  0  0  0  0
  1 16  1  0  0  0  0
  2  3  2  0  0  0  0
  2  5  1  0  0  0  0
  2  7  1  0  0  0  0
  3  4  1  0  0  0  0
  3 11  1  0  0  0  0
  4  6  2  0  0  0  0
  4 12  1  0  0  0  0
  5 14  1  0  0  0  0
  5 15  1  0  0  0  0
  6  9  1  0  0  0  0
  6 17  1  0  0  0  0
  7  9  2  0  0  0  0
  7 18  1  0  0  0  0
  8 19  1  0  0  0  0
  8 20  1  0  0  0  0
  8 21  1  0  0  0  0
  9 13  1  0  0  0  0
 10 23  1  0  0  0  0
 10 24  1  0  0  0  0
 10 25  1  0  0  0  0
 11 22  1  0  0  0  0
M  END
> <ConfScore>
-0.618067

$$$$
4agl


 25 25  0  0  0  0  0  0  0  0999 V2000
  122.7460  106.7119  -46.4919 N   0  3  0  1  0  4  0  0  0  0  0  0
  124.0410  105.3610  -44.8150 C   0  0  0  1  0  3  0  0  0  0  0  0
  124.3680  105.1510  -43.4700 C   0  0  0  1  0  3  0  0  0  0  0  0
  124.6850  103.8760  -43.0070 C   0  0  0  1  0  3  0  0  0  0  0  0
  123.6670  106.7390  -45.3390 C   0  0  0  1  0  4  0  0  0  0  0  0
  124.6740  102.7730  -43.8740 C   0  0  0  1  0  3  0  0  0  0  0  0
  124.0340  104.2490  -45.6830 C   0  0  0  1  0  3  0  0  0  0  0  0
  122.4359  108.0448  -47.0472 C   0  0  0  1  0  4  0  0  0  0  0  0
  124.3470  102.9640  -45.2180 C   0  0  0  1  0  3  0  0  0  0  0  0
  123.1991  105.7818  -47.5379 C   0  0  0  1  0  4  0  0  0  0  0  0
  124.4050  106.2300  -42.6310 O   0  0  0  1  0  2  0  0  0  0  0  0
  125.1380  103.6400  -40.9640 I   0  0  0  1  0  1  0  0  0  0  0  0
  124.3140  101.3570  -46.5570 I   0  0  0  1  0  1  0  0  0  0  0  0
  124.5892  107.2554  -45.6445 H   0  0  0  1  0  1  0  0  0  0  0  0
  123.1859  107.3009  -44.5240 H   0  0  0  1  0  1  0  0  0  0  0  0
  121.8753  106.3462  -46.1417 H   0  0  0  1  0  1  0  0  0  0  0  0
  124.9170  101.7840  -43.5040 H   0  0  0  1  0  1  0  0  0  0  0  0
  123.7830  104.3910  -46.7280 H   0  0  0  1  0  1  0  0  0  0  0  0
  123.3673  108.5333  -47.3701 H   0  0  0  1  0  1  0  0  0  0  0  0
  121.9479  108.6587  -46.2759 H   0  0  0  1  0  1  0  0  0  0  0  0
  121.7617  107.9359  -47.9092 H   0  0  0  1  0  1  0  0  0  0  0  0
  124.1620  107.0120  -43.1120 H   0  0  0  1  0  1  0  0  0  0  0  0
  124.0961  106.1878  -48.0269 H   0  0  0  1  0  1  0  0  0  0  0  0
  122.4013  105.6534  -48.2852 H   0  0  0  1  0  1  0  0  0  0  0  0
  123.4368  104.8086  -47.0847 H   0  0  0  1  0  1  0  0  0  0  0  0
  1  5  1  0  0  0  0
  1  8  1  0  0  0  0
  1 10  1  0  0  0  0
  1 16  1  0  0  0  0
  2  3  2  0  0  0  0
  2  5  1  0  0  0  0
  2  7  1  0  0  0  0
  3  4  1  0  0  0  0
  3 11  1  0  0  0  0
  4  6  2  0  0  0  0
  4 12  1  0  0  0  0
  5 14  1  0  0  0  0
  5 15  1  0  0  0  0
  6  9  1  0  0  0  0
  6 17  1  0  0  0  0
  7  9  2  0  0  0  0
  7 18  1  0  0  0  0
  8 19  1  0  0  0  0
  8 20  1  0  0  0  0
  8 21  1  0  0  0  0
  9 13  1  0  0  0  0
 10 23  1  0  0  0  0
 10 24  1  0  0  0  0
 10 25  1  0  0  0  0
 11 22  1  0  0  0  0
M  END
> <ConfScore>
-0.618067

$$$$
4agl


 25 25  0  0  0  0  0  0  0  0999 V2000
  123.6782  107.7952  -44.3084 N   0  3  0  1  0  4  0  0  0  0  0  0
  124.0410  105.3610  -44.8150 C   0  0  0  1  0  3  0  0  0  0  0  0
  124.3680  105.1510  -43.4700 C   0  0  0  1  0  3  0  0  0  0  0  0
  124.6850  103.8760  -43.0070 C   0  0  0  1  0  3  0  0  0  0  0  0
  123.6670  106.7390  -45.3390 C   0  0  0  1  0  4  0  0  0  0  0  0
  124.6740  102.7730  -43.8740 C   0  0  0  1  0  3  0  0  0  0  0  0
  124.0340  104.2490  -45.6830 C   0  0  0  1  0  3  0  0  0  0  0  0
  125.0005  108.0208  -43.6905 C   0  0  0  1  0  4  0  0  0  0  0  0
  124.3470  102.9640  -45.2180 C   0  0  0  1  0  3  0  0  0  0  0  0
  123.0888  109.0508  -44.7991 C   0  0  0  1  0  4  0  0  0  0  0  0
  124.4050  106.2300  -42.6310 O   0  0  0  1  0  2  0  0  0  0  0  0
  125.1380  103.6400  -40.9640 I   0  0  0  1  0  1  0  0  0  0  0  0
  124.3140  101.3570  -46.5570 I   0  0  0  1  0  1  0  0  0  0  0  0
  122.6552  106.6838  -45.7673 H   0  0  0  1  0  1  0  0  0  0  0  0
  124.3833  107.0162  -46.1273 H   0  0  0  1  0  1  0  0  0  0  0  0
  123.0774  107.4670  -43.5695 H   0  0  0  1  0  1  0  0  0  0  0  0
  124.9170  101.7840  -43.5040 H   0  0  0  1  0  1  0  0  0  0  0  0
  123.7830  104.3910  -46.7280 H   0  0  0  1  0  1  0  0  0  0  0  0
  125.4004  107.0648  -43.3209 H   0  0  0  1  0  1  0  0  0  0  0  0
  124.8977  108.7245  -42.8514 H   0  0  0  1  0  1  0  0  0  0  0  0
  125.6887  108.4409  -44.4384 H   0  0  0  1  0  1  0  0  0  0  0  0
  124.1620  107.0120  -43.1120 H   0  0  0  1  0  1  0  0  0  0  0  0
  123.1016  109.8011  -43.9957 H   0  0  0  1  0  1  0  0  0  0  0  0
  122.0499  108.8698  -45.1141 H   0  0  0  1  0  1  0  0  0  0  0  0
  123.6724  109.4194  -45.6549 H   0  0  0  1  0  1  0  0  0  0  0  0
  1  5  1  0  0  0  0
  1  8  1  0  0  0  0
  1 10  1  0  0  0  0
  1 16  1  0  0  0  0
  2  3  2  0  0  0  0
  2  5  1  0  0  0  0
  2  7  1  0  0  0  0
  3  4  1  0  0  0  0
  3 11  1  0  0  0  0
  4  6  2  0  0  0  0
  4 12  1  0  0  0  0
  5 14  1  0  0  0  0
  5 15  1  0  0  0  0
  6  9  1  0  0  0  0
  6 17  1  0  0  0  0
  7  9  2  0  0  0  0
  7 18  1  0  0  0  0
  8 19  1  0  0  0  0
  8 20  1  0  0  0  0
  8 21  1  0  0  0  0
  9 13  1  0  0  0  0
 10 23  1  0  0  0  0
 10 24  1  0  0  0  0
 10 25  1  0  0  0  0
 11 22  1  0  0  0  0
M  END
> <ConfScore>
-0.553749

$$$$
4agl


 25 25  0  0  0  0  0  0  0  0999 V2000
  123.6695  107.7936  -44.3066 N   0  3  0  1  0  4  0  0  0  0  0  0
  124.0410  105.3610  -44.8150 C   0  0  0  1  0  3  0  0  0  0  0  0
  124.3680  105.1510  -43.4700 C   0  0  0  1  0  3  0  0  0  0  0  0
  124.6850  103.8760  -43.0070 C   0  0  0  1  0  3  0  0  0  0  0  0
  123.6670  106.7390  -45.3390 C   0  0  0  1  0  4  0  0  0  0  0  0
  124.6740  102.7730  -43.8740 C   0  0  0  1  0  3  0  0  0  0  0  0
  124.0340  104.2490  -45.6830 C   0  0  0  1  0  3  0  0  0  0  0  0
  124.9924  108.0372  -43.6968 C   0  0  0  1  0  4  0  0  0  0  0  0
  124.3470  102.9640  -45.2180 C   0  0  0  1  0  3  0  0  0  0  0  0
  123.0588  109.0413  -44.7913 C   0  0  0  1  0  4  0  0  0  0  0  0
  124.4050  106.2300  -42.6310 O   0  0  0  1  0  2  0  0  0  0  0  0
  125.1380  103.6400  -40.9640 I   0  0  0  1  0  1  0  0  0  0  0  0
  124.3140  101.3570  -46.5570 I   0  0  0  1  0  1  0  0  0  0  0  0
  122.6579  106.6821  -45.7735 H   0  0  0  1  0  1  0  0  0  0  0  0
  124.3874  107.0191  -46.1225 H   0  0  0  1  0  1  0  0  0  0  0  0
  123.0784  107.4554  -43.5644 H   0  0  0  1  0  1  0  0  0  0  0  0
  124.9170  101.7840  -43.5040 H   0  0  0  1  0  1  0  0  0  0  0  0
  123.7830  104.3910  -46.7280 H   0  0  0  1  0  1  0  0  0  0  0  0
  125.4085  107.0865  -43.3315 H   0  0  0  1  0  1  0  0  0  0  0  0
  124.8848  108.7380  -42.8558 H   0  0  0  1  0  1  0  0  0  0  0  0
  125.6696  108.4685  -44.4484 H   0  0  0  1  0  1  0  0  0  0  0  0
  124.1620  107.0120  -43.1120 H   0  0  0  1  0  1  0  0  0  0  0  0
  122.0220  108.8467  -45.1005 H   0  0  0  1  0  1  0  0  0  0  0  0
  123.6321  109.4204  -45.6509 H   0  0  0  1  0  1  0  0  0  0  0  0
  123.0674  109.7900  -43.9861 H   0  0  0  1  0  1  0  0  0  0  0  0
  1  5  1  0  0  0  0
  1  8  1  0  0  0  0
  1 10  1  0  0  0  0
  1 16  1  0  0  0  0
  2  3  2  0  0  0  0
  2  5  1  0  0  0  0
  2  7  1  0  0  0  0
  3  4  1  0  0  0  0
  3 11  1  0  0  0  0
  4  6  2  0  0  0  0
  4 12  1  0  0  0  0
  5 14  1  0  0  0  0
  5 15  1  0  0  0  0
  6  9  1  0  0  0  0
  6 17  1  0  0  0  0
  7  9  2  0  0  0  0
  7 18  1  0  0  0  0
  8 19  1  0  0  0  0
  8 20  1  0  0  0  0
  8 21  1  0  0  0  0
  9 13  1  0  0  0  0
 10 23  1  0  0  0  0
 10 24  1  0  0  0  0
 10 25  1  0  0  0  0
 11 22  1  0  0  0  0
M  END
> <ConfScore>
-0.553749

$$$$
4agl


 25 25  0  0  0  0  0  0  0  0999 V2000
  123.6782  107.7952  -44.3084 N   0  3  0  1  0  4  0  0  0  0  0  0
  124.0410  105.3610  -44.8150 C   0  0  0  1  0  3  0  0  0  0  0  0
  124.3680  105.1510  -43.4700 C   0  0  0  1  0  3  0  0  0  0  0  0
  124.6850  103.8760  -43.0070 C   0  0  0  1  0  3  0  0  0  0  0  0
  123.6670  106.7390  -45.3390 C   0  0  0  1  0  4  0  0  0  0  0  0
  124.6740  102.7730  -43.8740 C   0  0  0  1  0  3  0  0  0  0  0  0
  124.0340  104.2490  -45.6830 C   0  0  0  1  0  3  0  0  0  0  0  0
  124.9727  107.9462  -43.6138 C   0  0  0  1  0  4  0  0  0  0  0  0
  124.3470  102.9640  -45.2180 C   0  0  0  1  0  3  0  0  0  0  0  0
  123.1913  109.0813  -44.8314 C   0  0  0  1  0  4  0  0  0  0  0  0
  124.4050  106.2300  -42.6310 O   0  0  0  1  0  2  0  0  0  0  0  0
  125.1380  103.6400  -40.9640 I   0  0  0  1  0  1  0  0  0  0  0  0
  124.3140  101.3570  -46.5570 I   0  0  0  1  0  1  0  0  0  0  0  0
  122.6552  106.6838  -45.7673 H   0  0  0  1  0  1  0  0  0  0  0  0
  124.3833  107.0162  -46.1273 H   0  0  0  1  0  1  0  0  0  0  0  0
  123.0173  107.5036  -43.6063 H   0  0  0  1  0  1  0  0  0  0  0  0
  124.9170  101.7840  -43.5040 H   0  0  0  1  0  1  0  0  0  0  0  0
  123.7830  104.3910  -46.7280 H   0  0  0  1  0  1  0  0  0  0  0  0
  124.8960  108.7495  -42.8659 H   0  0  0  1  0  1  0  0  0  0  0  0
  125.7539  108.1995  -44.3456 H   0  0  0  1  0  1  0  0  0  0  0  0
  125.2330  107.0027  -43.1123 H   0  0  0  1  0  1  0  0  0  0  0  0
  124.1620  107.0120  -43.1120 H   0  0  0  1  0  1  0  0  0  0  0  0
  123.0409  109.7831  -43.9988 H   0  0  0  1  0  1  0  0  0  0  0  0
  122.2364  108.9260  -45.3563 H   0  0  0  1  0  1  0  0  0  0  0  0
  123.9311  109.4956  -45.5315 H   0  0  0  1  0  1  0  0  0  0  0  0
  1  5  1  0  0  0  0
  1  8  1  0  0  0  0
  1 10  1  0  0  0  0
  1 16  1  0  0  0  0
  2  3  2  0  0  0  0
  2  5  1  0  0  0  0
  2  7  1  0  0  0  0
  3  4  1  0  0  0  0
  3 11  1  0  0  0  0
  4  6  2  0  0  0  0
  4 12  1  0  0  0  0
  5 14  1  0  0  0  0
  5 15  1  0  0  0  0
  6  9  1  0  0  0  0
  6 17  1  0  0  0  0
  7  9  2  0  0  0  0
  7 18  1  0  0  0  0
  8 19  1  0  0  0  0
  8 20  1  0  0  0  0
  8 21  1  0  0  0  0
  9 13  1  0  0  0  0
 10 23  1  0  0  0  0
 10 24  1  0  0  0  0
 10 25  1  0  0  0  0
 11 22  1  0  0  0  0
M  END
> <ConfScore>
-0.553749

$$$$
4agl


 25 25  0  0  0  0  0  0  0  0999 V2000
  123.3698  106.7701  -46.7842 N   0  3  0  1  0  4  0  0  0  0  0  0
  124.0410  105.3610  -44.8150 C   0  0  0  1  0  3  0  0  0  0  0  0
  124.3680  105.1510  -43.4700 C   0  0  0  1  0  3  0  0  0  0  0  0
  124.6850  103.8760  -43.0070 C   0  0  0  1  0  3  0  0  0  0  0  0
  123.6670  106.7390  -45.3390 C   0  0  0  1  0  4  0  0  0  0  0  0
  124.6740  102.7730  -43.8740 C   0  0  0  1  0  3  0  0  0  0  0  0
  124.0340  104.2490  -45.6830 C   0  0  0  1  0  3  0  0  0  0  0  0
  124.5328  106.4750  -47.6454 C   0  0  0  1  0  4  0  0  0  0  0  0
  124.3470  102.9640  -45.2180 C   0  0  0  1  0  3  0  0  0  0  0  0
  122.2142  105.9269  -47.1279 C   0  0  0  1  0  4  0  0  0  0  0  0
  124.4050  106.2300  -42.6310 O   0  0  0  1  0  2  0  0  0  0  0  0
  125.1380  103.6400  -40.9640 I   0  0  0  1  0  1  0  0  0  0  0  0
  124.3140  101.3570  -46.5570 I   0  0  0  1  0  1  0  0  0  0  0  0
  124.5058  107.4234  -45.1431 H   0  0  0  1  0  1  0  0  0  0  0  0
  122.7762  107.0869  -44.7943 H   0  0  0  1  0  1  0  0  0  0  0  0
  123.1031  107.7190  -46.9914 H   0  0  0  1  0  1  0  0  0  0  0  0
  124.9170  101.7840  -43.5040 H   0  0  0  1  0  1  0  0  0  0  0  0
  123.7830  104.3910  -46.7280 H   0  0  0  1  0  1  0  0  0  0  0  0
  125.3691  107.1353  -47.3711 H   0  0  0  1  0  1  0  0  0  0  0  0
  124.2617  106.6441  -48.6979 H   0  0  0  1  0  1  0  0  0  0  0  0
  124.8344  105.4262  -47.5089 H   0  0  0  1  0  1  0  0  0  0  0  0
  124.1620  107.0120  -43.1120 H   0  0  0  1  0  1  0  0  0  0  0  0
  121.3759  106.1614  -46.4565 H   0  0  0  1  0  1  0  0  0  0  0  0
  122.4873  104.8666  -47.0156 H   0  0  0  1  0  1  0  0  0  0  0  0
  121.9162  106.1204  -48.1684 H   0  0  0  1  0  1  0  0  0  0  0  0
  1  5  1  0  0  0  0
  1  8  1  0  0  0  0
  1 10  1  0  0  0  0
  1 16  1  0  0  0  0
  2  3  2  0  0  0  0
  2  5  1  0  0  0  0
  2  7  1  0  0  0  0
  3  4  1  0  0  0  0
  3 11  1  0  0  0  0
  4  6  2  0  0  0  0
  4 12  1  0  0  0  0
  5 14  1  0  0  0  0
  5 15  1  0  0  0  0
  6  9  1  0  0  0  0
  6 17  1  0  0  0  0
  7  9  2  0  0  0  0
  7 18  1  0  0  0  0
  8 19  1  0  0  0  0
  8 20  1  0  0  0  0
  8 21  1  0  0  0  0
  9 13  1  0  0  0  0
 10 23  1  0  0  0  0
 10 24  1  0  0  0  0
 10 25  1  0  0  0  0
 11 22  1  0  0  0  0
M  END
> <ConfScore>
-0.543823

$$$$
4agl


 25 25  0  0  0  0  0  0  0  0999 V2000
  123.6695  107.7936  -44.3066 N   0  3  0  1  0  4  0  0  0  0  0  0
  124.0410  105.3610  -44.8150 C   0  0  0  1  0  3  0  0  0  0  0  0
  124.3680  105.1510  -43.4700 C   0  0  0  1  0  3  0  0  0  0  0  0
  124.6850  103.8760  -43.0070 C   0  0  0  1  0  3  0  0  0  0  0  0
  123.6670  106.7390  -45.3390 C   0  0  0  1  0  4  0  0  0  0  0  0
  124.6740  102.7730  -43.8740 C   0  0  0  1  0  3  0  0  0  0  0  0
  124.0340  104.2490  -45.6830 C   0  0  0  1  0  3  0  0  0  0  0  0
  122.7977  107.5066  -43.1495 C   0  0  0  1  0  4  0  0  0  0  0  0
  124.3470  102.9640  -45.2180 C   0  0  0  1  0  3  0  0  0  0  0  0
  125.0333  108.1467  -43.8823 C   0  0  0  1  0  4  0  0  0  0  0  0
  124.4050  106.2300  -42.6310 O   0  0  0  1  0  2  0  0  0  0  0  0
  125.1380  103.6400  -40.9640 I   0  0  0  1  0  1  0  0  0  0  0  0
  124.3140  101.3570  -46.5570 I   0  0  0  1  0  1  0  0  0  0  0  0
  122.6579  106.6821  -45.7735 H   0  0  0  1  0  1  0  0  0  0  0  0
  124.3874  107.0191  -46.1225 H   0  0  0  1  0  1  0  0  0  0  0  0
  123.2861  108.6137  -44.7481 H   0  0  0  1  0  1  0  0  0  0  0  0
  124.9170  101.7840  -43.5040 H   0  0  0  1  0  1  0  0  0  0  0  0
  123.7830  104.3910  -46.7280 H   0  0  0  1  0  1  0  0  0  0  0  0
  121.7849  107.2646  -43.5047 H   0  0  0  1  0  1  0  0  0  0  0  0
  122.7558  108.3893  -42.4945 H   0  0  0  1  0  1  0  0  0  0  0  0
  123.2024  106.6524  -42.5874 H   0  0  0  1  0  1  0  0  0  0  0  0
  124.1620  107.0120  -43.1120 H   0  0  0  1  0  1  0  0  0  0  0  0
  125.6562  108.3354  -44.7682 H   0  0  0  1  0  1  0  0  0  0  0  0
  125.4638  107.3160  -43.3026 H   0  0  0  1  0  1  0  0  0  0  0  0
  124.9999  109.0509  -43.2576 H   0  0  0  1  0  1  0  0  0  0  0  0
  1  5  1  0  0  0  0
  1  8  1  0  0  0  0
  1 10  1  0  0  0  0
  1 16  1  0  0  0  0
  2  3  2  0  0  0  0
  2  5  1  0  0  0  0
  2  7  1  0  0  0  0
  3  4  1  0  0  0  0
  3 11  1  0  0  0  0
  4  6  2  0  0  0  0
  4 12  1  0  0  0  0
  5 14  1  0  0  0  0
  5 15  1  0  0  0  0
  6  9  1  0  0  0  0
  6 17  1  0  0  0  0
  7  9  2  0  0  0  0
  7 18  1  0  0  0  0
  8 19  1  0  0  0  0
  8 20  1  0  0  0  0
  8 21  1  0  0  0  0
  9 13  1  0  0  0  0
 10 23  1  0  0  0  0
 10 24  1  0  0  0  0
 10 25  1  0  0  0  0
 11 22  1  0  0  0  0
M  END
> <ConfScore>
-0.543823

$$$$
4agl


 25 25  0  0  0  0  0  0  0  0999 V2000
  124.7807  107.4545  -45.9914 N   0  3  0  1  0  4  0  0  0  0  0  0
  124.0410  105.3610  -44.8150 C   0  0  0  1  0  3  0  0  0  0  0  0
  124.3680  105.1510  -43.4700 C   0  0  0  1  0  3  0  0  0  0  0  0
  124.6850  103.8760  -43.0070 C   0  0  0  1  0  3  0  0  0  0  0  0
  123.6670  106.7390  -45.3390 C   0  0  0  1  0  4  0  0  0  0  0  0
  124.6740  102.7730  -43.8740 C   0  0  0  1  0  3  0  0  0  0  0  0
  124.0340  104.2490  -45.6830 C   0  0  0  1  0  3  0  0  0  0  0  0
  124.3512  108.4973  -46.9449 C   0  0  0  1  0  4  0  0  0  0  0  0
  124.3470  102.9640  -45.2180 C   0  0  0  1  0  3  0  0  0  0  0  0
  125.7467  107.9797  -45.0139 C   0  0  0  1  0  4  0  0  0  0  0  0
  124.4050  106.2300  -42.6310 O   0  0  0  1  0  2  0  0  0  0  0  0
  125.1380  103.6400  -40.9640 I   0  0  0  1  0  1  0  0  0  0  0  0
  124.3140  101.3570  -46.5570 I   0  0  0  1  0  1  0  0  0  0  0  0
  123.3131  107.3469  -44.4931 H   0  0  0  1  0  1  0  0  0  0  0  0
  122.8536  106.6224  -46.0712 H   0  0  0  1  0  1  0  0  0  0  0  0
  125.2718  106.7639  -46.5360 H   0  0  0  1  0  1  0  0  0  0  0  0
  124.9170  101.7840  -43.5040 H   0  0  0  1  0  1  0  0  0  0  0  0
  123.7830  104.3910  -46.7280 H   0  0  0  1  0  1  0  0  0  0  0  0
  123.6450  108.0639  -47.6688 H   0  0  0  1  0  1  0  0  0  0  0  0
  125.2292  108.8898  -47.4788 H   0  0  0  1  0  1  0  0  0  0  0  0
  123.8594  109.3150  -46.3982 H   0  0  0  1  0  1  0  0  0  0  0  0
  124.1620  107.0120  -43.1120 H   0  0  0  1  0  1  0  0  0  0  0  0
  125.2916  108.8123  -44.4588 H   0  0  0  1  0  1  0  0  0  0  0  0
  126.6439  108.3384  -45.5410 H   0  0  0  1  0  1  0  0  0  0  0  0
  126.0285  107.1813  -44.3122 H   0  0  0  1  0  1  0  0  0  0  0  0
  1  5  1  0  0  0  0
  1  8  1  0  0  0  0
  1 10  1  0  0  0  0
  1 16  1  0  0  0  0
  2  3  2  0  0  0  0
  2  5  1  0  0  0  0
  2  7  1  0  0  0  0
  3  4  1  0  0  0  0
  3 11  1  0  0  0  0
  4  6  2  0  0  0  0
  4 12  1  0  0  0  0
  5 14  1  0  0  0  0
  5 15  1  0  0  0  0
  6  9  1  0  0  0  0
  6 17  1  0  0  0  0
  7  9  2  0  0  0  0
  7 18  1  0  0  0  0
  8 19  1  0  0  0  0
  8 20  1  0  0  0  0
  8 21  1  0  0  0  0
  9 13  1  0  0  0  0
 10 23  1  0  0  0  0
 10 24  1  0  0  0  0
 10 25  1  0  0  0  0
 11 22  1  0  0  0  0
M  END
> <ConfScore>
-0.45062

$$$$
4agl


 25 25  0  0  0  0  0  0  0  0999 V2000
  122.2399  107.0763  -45.1725 N   0  3  0  1  0  4  0  0  0  0  0  0
  124.0410  105.3610  -44.8150 C   0  0  0  1  0  3  0  0  0  0  0  0
  124.3680  105.1510  -43.4700 C   0  0  0  1  0  3  0  0  0  0  0  0
  124.6850  103.8760  -43.0070 C   0  0  0  1  0  3  0  0  0  0  0  0
  123.6670  106.7390  -45.3390 C   0  0  0  1  0  4  0  0  0  0  0  0
  124.6740  102.7730  -43.8740 C   0  0  0  1  0  3  0  0  0  0  0  0
  124.0340  104.2490  -45.6830 C   0  0  0  1  0  3  0  0  0  0  0  0
  121.5564  106.3014  -44.1173 C   0  0  0  1  0  4  0  0  0  0  0  0
  124.3470  102.9640  -45.2180 C   0  0  0  1  0  3  0  0  0  0  0  0
  122.0313  108.5228  -45.0030 C   0  0  0  1  0  4  0  0  0  0  0  0
  124.4050  106.2300  -42.6310 O   0  0  0  1  0  2  0  0  0  0  0  0
  125.1380  103.6400  -40.9640 I   0  0  0  1  0  1  0  0  0  0  0  0
  124.3140  101.3570  -46.5570 I   0  0  0  1  0  1  0  0  0  0  0  0
  123.9096  106.7793  -46.4113 H   0  0  0  1  0  1  0  0  0  0  0  0
  124.2657  107.4890  -44.8001 H   0  0  0  1  0  1  0  0  0  0  0  0
  121.7929  106.8225  -46.0388 H   0  0  0  1  0  1  0  0  0  0  0  0
  124.9170  101.7840  -43.5040 H   0  0  0  1  0  1  0  0  0  0  0  0
  123.7830  104.3910  -46.7280 H   0  0  0  1  0  1  0  0  0  0  0  0
  121.7201  105.2268  -44.2872 H   0  0  0  1  0  1  0  0  0  0  0  0
  120.4781  106.5171  -44.1444 H   0  0  0  1  0  1  0  0  0  0  0  0
  121.9614  106.5825  -43.1342 H   0  0  0  1  0  1  0  0  0  0  0  0
  124.1620  107.0120  -43.1120 H   0  0  0  1  0  1  0  0  0  0  0  0
  122.5678  109.0663  -45.7936 H   0  0  0  1  0  1  0  0  0  0  0  0
  122.4137  108.8358  -44.0195 H   0  0  0  1  0  1  0  0  0  0  0  0
  120.9569  108.7478  -45.0670 H   0  0  0  1  0  1  0  0  0  0  0  0
  1  5  1  0  0  0  0
  1  8  1  0  0  0  0
  1 10  1  0  0  0  0
  1 16  1  0  0  0  0
  2  3  2  0  0  0  0
  2  5  1  0  0  0  0
  2  7  1  0  0  0  0
  3  4  1  0  0  0  0
  3 11  1  0  0  0  0
  4  6  2  0  0  0  0
  4 12  1  0  0  0  0
  5 14  1  0  0  0  0
  5 15  1  0  0  0  0
  6  9  1  0  0  0  0
  6 17  1  0  0  0  0
  7  9  2  0  0  0  0
  7 18  1  0  0  0  0
  8 19  1  0  0  0  0
  8 20  1  0  0  0  0
  8 21  1  0  0  0  0
  9 13  1  0  0  0  0
 10 23  1  0  0  0  0
 10 24  1  0  0  0  0
 10 25  1  0  0  0  0
 11 22  1  0  0  0  0
M  END
> <ConfScore>
-0.415502

$$$$
4agl


 25 25  0  0  0  0  0  0  0  0999 V2000
  122.2399  107.0763  -45.1725 N   0  3  0  1  0  4  0  0  0  0  0  0
  124.0410  105.3610  -44.8150 C   0  0  0  1  0  3  0  0  0  0  0  0
  124.3680  105.1510  -43.4700 C   0  0  0  1  0  3  0  0  0  0  0  0
  124.6850  103.8760  -43.0070 C   0  0  0  1  0  3  0  0  0  0  0  0
  123.6670  106.7390  -45.3390 C   0  0  0  1  0  4  0  0  0  0  0  0
  124.6740  102.7730  -43.8740 C   0  0  0  1  0  3  0  0  0  0  0  0
  124.0340  104.2490  -45.6830 C   0  0  0  1  0  3  0  0  0  0  0  0
  121.9040  107.6399  -43.8494 C   0  0  0  1  0  4  0  0  0  0  0  0
  124.3470  102.9640  -45.2180 C   0  0  0  1  0  3  0  0  0  0  0  0
  121.7433  107.9271  -46.2652 C   0  0  0  1  0  4  0  0  0  0  0  0
  124.4050  106.2300  -42.6310 O   0  0  0  1  0  2  0  0  0  0  0  0
  125.1380  103.6400  -40.9640 I   0  0  0  1  0  1  0  0  0  0  0  0
  124.3140  101.3570  -46.5570 I   0  0  0  1  0  1  0  0  0  0  0  0
  123.9096  106.7793  -46.4113 H   0  0  0  1  0  1  0  0  0  0  0  0
  124.2657  107.4890  -44.8001 H   0  0  0  1  0  1  0  0  0  0  0  0
  121.7401  106.2043  -45.2393 H   0  0  0  1  0  1  0  0  0  0  0  0
  124.9170  101.7840  -43.5040 H   0  0  0  1  0  1  0  0  0  0  0  0
  123.7830  104.3910  -46.7280 H   0  0  0  1  0  1  0  0  0  0  0  0
  122.2751  106.9691  -43.0602 H   0  0  0  1  0  1  0  0  0  0  0  0
  120.8123  107.7419  -43.7610 H   0  0  0  1  0  1  0  0  0  0  0  0
  122.3741  108.6282  -43.7408 H   0  0  0  1  0  1  0  0  0  0  0  0
  124.1620  107.0120  -43.1120 H   0  0  0  1  0  1  0  0  0  0  0  0
  120.6756  108.1379  -46.1102 H   0  0  0  1  0  1  0  0  0  0  0  0
  121.8778  107.4067  -47.2256 H   0  0  0  1  0  1  0  0  0  0  0  0
  122.3058  108.8718  -46.2783 H   0  0  0  1  0  1  0  0  0  0  0  0
  1  5  1  0  0  0  0
  1  8  1  0  0  0  0
  1 10  1  0  0  0  0
  1 16  1  0  0  0  0
  2  3  2  0  0  0  0
  2  5  1  0  0  0  0
  2  7  1  0  0  0  0
  3  4  1  0  0  0  0
  3 11  1  0  0  0  0
  4  6  2  0  0  0  0
  4 12  1  0  0  0  0
  5 14  1  0  0  0  0
  5 15  1  0  0  0  0
  6  9  1  0  0  0  0
  6 17  1  0  0  0  0
  7  9  2  0  0  0  0
  7 18  1  0  0  0  0
  8 19  1  0  0  0  0
  8 20  1  0  0  0  0
  8 21  1  0  0  0  0
  9 13  1  0  0  0  0
 10 23  1  0  0  0  0
 10 24  1  0  0  0  0
 10 25  1  0  0  0  0
 11 22  1  0  0  0  0
M  END
> <ConfScore>
-0.414788

$$$$
4agl


 25 25  0  0  0  0  0  0  0  0999 V2000
  122.2399  107.0763  -45.1725 N   0  3  0  1  0  4  0  0  0  0  0  0
  124.0410  105.3610  -44.8150 C   0  0  0  1  0  3  0  0  0  0  0  0
  124.3680  105.1510  -43.4700 C   0  0  0  1  0  3  0  0  0  0  0  0
  124.6850  103.8760  -43.0070 C   0  0  0  1  0  3  0  0  0  0  0  0
  123.6670  106.7390  -45.3390 C   0  0  0  1  0  4  0  0  0  0  0  0
  124.6740  102.7730  -43.8740 C   0  0  0  1  0  3  0  0  0  0  0  0
  124.0340  104.2490  -45.6830 C   0  0  0  1  0  3  0  0  0  0  0  0
  121.9040  107.6399  -43.8494 C   0  0  0  1  0  4  0  0  0  0  0  0
  124.3470  102.9640  -45.2180 C   0  0  0  1  0  3  0  0  0  0  0  0
  121.7433  107.9271  -46.2652 C   0  0  0  1  0  4  0  0  0  0  0  0
  124.4050  106.2300  -42.6310 O   0  0  0  1  0  2  0  0  0  0  0  0
  125.1380  103.6400  -40.9640 I   0  0  0  1  0  1  0  0  0  0  0  0
  124.3140  101.3570  -46.5570 I   0  0  0  1  0  1  0  0  0  0  0  0
  123.9096  106.7793  -46.4113 H   0  0  0  1  0  1  0  0  0  0  0  0
  124.2657  107.4890  -44.8001 H   0  0  0  1  0  1  0  0  0  0  0  0
  121.7401  106.2043  -45.2393 H   0  0  0  1  0  1  0  0  0  0  0  0
  124.9170  101.7840  -43.5040 H   0  0  0  1  0  1  0  0  0  0  0  0
  123.7830  104.3910  -46.7280 H   0  0  0  1  0  1  0  0  0  0  0  0
  120.8273  107.8624  -43.8083 H   0  0  0  1  0  1  0  0  0  0  0  0
  122.4764  108.5654  -43.6892 H   0  0  0  1  0  1  0  0  0  0  0  0
  122.1577  106.9121  -43.0648 H   0  0  0  1  0  1  0  0  0  0  0  0
  124.1620  107.0120  -43.1120 H   0  0  0  1  0  1  0  0  0  0  0  0
  120.6756  108.1379  -46.1102 H   0  0  0  1  0  1  0  0  0  0  0  0
  121.8778  107.4067  -47.2256 H   0  0  0  1  0  1  0  0  0  0  0  0
  122.3058  108.8718  -46.2783 H   0  0  0  1  0  1  0  0  0  0  0  0
  1  5  1  0  0  0  0
  1  8  1  0  0  0  0
  1 10  1  0  0  0  0
  1 16  1  0  0  0  0
  2  3  2  0  0  0  0
  2  5  1  0  0  0  0
  2  7  1  0  0  0  0
  3  4  1  0  0  0  0
  3 11  1  0  0  0  0
  4  6  2  0  0  0  0
  4 12  1  0  0  0  0
  5 14  1  0  0  0  0
  5 15  1  0  0  0  0
  6  9  1  0  0  0  0
  6 17  1  0  0  0  0
  7  9  2  0  0  0  0
  7 18  1  0  0  0  0
  8 19  1  0  0  0  0
  8 20  1  0  0  0  0
  8 21  1  0  0  0  0
  9 13  1  0  0  0  0
 10 23  1  0  0  0  0
 10 24  1  0  0  0  0
 10 25  1  0  0  0  0
 11 22  1  0  0  0  0
M  END
> <ConfScore>
-0.414788

$$$$
4agl


 25 25  0  0  0  0  0  0  0  0999 V2000
  122.2399  107.0763  -45.1725 N   0  3  0  1  0  4  0  0  0  0  0  0
  124.0410  105.3610  -44.8150 C   0  0  0  1  0  3  0  0  0  0  0  0
  124.3680  105.1510  -43.4700 C   0  0  0  1  0  3  0  0  0  0  0  0
  124.6850  103.8760  -43.0070 C   0  0  0  1  0  3  0  0  0  0  0  0
  123.6670  106.7390  -45.3390 C   0  0  0  1  0  4  0  0  0  0  0  0
  124.6740  102.7730  -43.8740 C   0  0  0  1  0  3  0  0  0  0  0  0
  124.0340  104.2490  -45.6830 C   0  0  0  1  0  3  0  0  0  0  0  0
  121.9040  107.6399  -43.8494 C   0  0  0  1  0  4  0  0  0  0  0  0
  124.3470  102.9640  -45.2180 C   0  0  0  1  0  3  0  0  0  0  0  0
  121.7433  107.9271  -46.2652 C   0  0  0  1  0  4  0  0  0  0  0  0
  124.4050  106.2300  -42.6310 O   0  0  0  1  0  2  0  0  0  0  0  0
  125.1380  103.6400  -40.9640 I   0  0  0  1  0  1  0  0  0  0  0  0
  124.3140  101.3570  -46.5570 I   0  0  0  1  0  1  0  0  0  0  0  0
  123.9096  106.7793  -46.4113 H   0  0  0  1  0  1  0  0  0  0  0  0
  124.2657  107.4890  -44.8001 H   0  0  0  1  0  1  0  0  0  0  0  0
  121.7401  106.2043  -45.2393 H   0  0  0  1  0  1  0  0  0  0  0  0
  124.9170  101.7840  -43.5040 H   0  0  0  1  0  1  0  0  0  0  0  0
  123.7830  104.3910  -46.7280 H   0  0  0  1  0  1  0  0  0  0  0  0
  122.2751  106.9691  -43.0602 H   0  0  0  1  0  1  0  0  0  0  0  0
  120.8123  107.7419  -43.7610 H   0  0  0  1  0  1  0  0  0  0  0  0
  122.3741  108.6282  -43.7408 H   0  0  0  1  0  1  0  0  0  0  0  0
  124.1620  107.0120  -43.1120 H   0  0  0  1  0  1  0  0  0  0  0  0
  122.0267  107.4865  -47.2316 H   0  0  0  1  0  1  0  0  0  0  0  0
  122.1846  108.9316  -46.1775 H   0  0  0  1  0  1  0  0  0  0  0  0
  120.6480  108.0013  -46.2027 H   0  0  0  1  0  1  0  0  0  0  0  0
  1  5  1  0  0  0  0
  1  8  1  0  0  0  0
  1 10  1  0  0  0  0
  1 16  1  0  0  0  0
  2  3  2  0  0  0  0
  2  5  1  0  0  0  0
  2  7  1  0  0  0  0
  3  4  1  0  0  0  0
  3 11  1  0  0  0  0
  4  6  2  0  0  0  0
  4 12  1  0  0  0  0
  5 14  1  0  0  0  0
  5 15  1  0  0  0  0
  6  9  1  0  0  0  0
  6 17  1  0  0  0  0
  7  9  2  0  0  0  0
  7 18  1  0  0  0  0
  8 19  1  0  0  0  0
  8 20  1  0  0  0  0
  8 21  1  0  0  0  0
  9 13  1  0  0  0  0
 10 23  1  0  0  0  0
 10 24  1  0  0  0  0
 10 25  1  0  0  0  0
 11 22  1  0  0  0  0
M  END
> <ConfScore>
-0.414788

$$$$
4agl


 25 25  0  0  0  0  0  0  0  0999 V2000
  124.7807  107.4545  -45.9914 N   0  3  0  1  0  4  0  0  0  0  0  0
  124.0410  105.3610  -44.8150 C   0  0  0  1  0  3  0  0  0  0  0  0
  124.3680  105.1510  -43.4700 C   0  0  0  1  0  3  0  0  0  0  0  0
  124.6850  103.8760  -43.0070 C   0  0  0  1  0  3  0  0  0  0  0  0
  123.6670  106.7390  -45.3390 C   0  0  0  1  0  4  0  0  0  0  0  0
  124.6740  102.7730  -43.8740 C   0  0  0  1  0  3  0  0  0  0  0  0
  124.0340  104.2490  -45.6830 C   0  0  0  1  0  3  0  0  0  0  0  0
  125.7812  106.5681  -46.6195 C   0  0  0  1  0  4  0  0  0  0  0  0
  124.3470  102.9640  -45.2180 C   0  0  0  1  0  3  0  0  0  0  0  0
  124.3020  108.4811  -46.9302 C   0  0  0  1  0  4  0  0  0  0  0  0
  124.4050  106.2300  -42.6310 O   0  0  0  1  0  2  0  0  0  0  0  0
  125.1380  103.6400  -40.9640 I   0  0  0  1  0  1  0  0  0  0  0  0
  124.3140  101.3570  -46.5570 I   0  0  0  1  0  1  0  0  0  0  0  0
  123.3131  107.3469  -44.4931 H   0  0  0  1  0  1  0  0  0  0  0  0
  122.8536  106.6224  -46.0712 H   0  0  0  1  0  1  0  0  0  0  0  0
  125.2643  107.9433  -45.2553 H   0  0  0  1  0  1  0  0  0  0  0  0
  124.9170  101.7840  -43.5040 H   0  0  0  1  0  1  0  0  0  0  0  0
  123.7830  104.3910  -46.7280 H   0  0  0  1  0  1  0  0  0  0  0  0
  125.3251  106.0493  -47.4759 H   0  0  0  1  0  1  0  0  0  0  0  0
  126.1278  105.8273  -45.8839 H   0  0  0  1  0  1  0  0  0  0  0  0
  126.6359  107.1666  -46.9670 H   0  0  0  1  0  1  0  0  0  0  0  0
  124.1620  107.0120  -43.1120 H   0  0  0  1  0  1  0  0  0  0  0  0
  123.5480  109.1090  -46.4346 H   0  0  0  1  0  1  0  0  0  0  0  0
  123.8523  107.9938  -47.8087 H   0  0  0  1  0  1  0  0  0  0  0  0
  125.1473  109.1069  -47.2509 H   0  0  0  1  0  1  0  0  0  0  0  0
  1  5  1  0  0  0  0
  1  8  1  0  0  0  0
  1 10  1  0  0  0  0
  1 16  1  0  0  0  0
  2  3  2  0  0  0  0
  2  5  1  0  0  0  0
  2  7  1  0  0  0  0
  3  4  1  0  0  0  0
  3 11  1  0  0  0  0
  4  6  2  0  0  0  0
  4 12  1  0  0  0  0
  5 14  1  0  0  0  0
  5 15  1  0  0  0  0
  6  9  1  0  0  0  0
  6 17  1  0  0  0  0
  7  9  2  0  0  0  0
  7 18  1  0  0  0  0
  8 19  1  0  0  0  0
  8 20  1  0  0  0  0
  8 21  1  0  0  0  0
  9 13  1  0  0  0  0
 10 23  1  0  0  0  0
 10 24  1  0  0  0  0
 10 25  1  0  0  0  0
 11 22  1  0  0  0  0
M  END
> <ConfScore>
-0.380477

$$$$
4agl


 25 25  0  0  0  0  0  0  0  0999 V2000
  124.8133  107.5195  -45.8437 N   0  3  0  1  0  4  0  0  0  0  0  0
  124.0410  105.3610  -44.8150 C   0  0  0  1  0  3  0  0  0  0  0  0
  124.3680  105.1510  -43.4700 C   0  0  0  1  0  3  0  0  0  0  0  0
  124.6850  103.8760  -43.0070 C   0  0  0  1  0  3  0  0  0  0  0  0
  123.6670  106.7390  -45.3390 C   0  0  0  1  0  4  0  0  0  0  0  0
  124.6740  102.7730  -43.8740 C   0  0  0  1  0  3  0  0  0  0  0  0
  124.0340  104.2490  -45.6830 C   0  0  0  1  0  3  0  0  0  0  0  0
  125.9787  106.6984  -46.2296 C   0  0  0  1  0  4  0  0  0  0  0  0
  124.3470  102.9640  -45.2180 C   0  0  0  1  0  3  0  0  0  0  0  0
  124.4210  108.4422  -46.9204 C   0  0  0  1  0  4  0  0  0  0  0  0
  124.4050  106.2300  -42.6310 O   0  0  0  1  0  2  0  0  0  0  0  0
  125.1380  103.6400  -40.9640 I   0  0  0  1  0  1  0  0  0  0  0  0
  124.3140  101.3570  -46.5570 I   0  0  0  1  0  1  0  0  0  0  0  0
  123.1962  107.3045  -44.5211 H   0  0  0  1  0  1  0  0  0  0  0  0
  122.9448  106.6134  -46.1599 H   0  0  0  1  0  1  0  0  0  0  0  0
  125.1185  108.0923  -45.0733 H   0  0  0  1  0  1  0  0  0  0  0  0
  124.9170  101.7840  -43.5040 H   0  0  0  1  0  1  0  0  0  0  0  0
  123.7830  104.3910  -46.7280 H   0  0  0  1  0  1  0  0  0  0  0  0
  126.3438  106.1446  -45.3518 H   0  0  0  1  0  1  0  0  0  0  0  0
  126.7777  107.3519  -46.6096 H   0  0  0  1  0  1  0  0  0  0  0  0
  125.6832  105.9870  -47.0145 H   0  0  0  1  0  1  0  0  0  0  0  0
  124.1620  107.0120  -43.1120 H   0  0  0  1  0  1  0  0  0  0  0  0
  123.5422  109.0223  -46.6048 H   0  0  0  1  0  1  0  0  0  0  0  0
  124.1737  107.8663  -47.8251 H   0  0  0  1  0  1  0  0  0  0  0  0
  125.2538  109.1266  -47.1377 H   0  0  0  1  0  1  0  0  0  0  0  0
  1  5  1  0  0  0  0
  1  8  1  0  0  0  0
  1 10  1  0  0  0  0
  1 16  1  0  0  0  0
  2  3  2  0  0  0  0
  2  5  1  0  0  0  0
  2  7  1  0  0  0  0
  3  4  1  0  0  0  0
  3 11  1  0  0  0  0
  4  6  2  0  0  0  0
  4 12  1  0  0  0  0
  5 14  1  0  0  0  0
  5 15  1  0  0  0  0
  6  9  1  0  0  0  0
  6 17  1  0  0  0  0
  7  9  2  0  0  0  0
  7 18  1  0  0  0  0
  8 19  1  0  0  0  0
  8 20  1  0  0  0  0
  8 21  1  0  0  0  0
  9 13  1  0  0  0  0
 10 23  1  0  0  0  0
 10 24  1  0  0  0  0
 10 25  1  0  0  0  0
 11 22  1  0  0  0  0
M  END
> <ConfScore>
-0.380477

$$$$
4agl


 25 25  0  0  0  0  0  0  0  0999 V2000
  124.7615  107.7261  -45.2634 N   0  3  0  1  0  4  0  0  0  0  0  0
  124.0410  105.3610  -44.8150 C   0  0  0  1  0  3  0  0  0  0  0  0
  124.3680  105.1510  -43.4700 C   0  0  0  1  0  3  0  0  0  0  0  0
  124.6850  103.8760  -43.0070 C   0  0  0  1  0  3  0  0  0  0  0  0
  123.6670  106.7390  -45.3390 C   0  0  0  1  0  4  0  0  0  0  0  0
  124.6740  102.7730  -43.8740 C   0  0  0  1  0  3  0  0  0  0  0  0
  124.0340  104.2490  -45.6830 C   0  0  0  1  0  3  0  0  0  0  0  0
  125.6858  107.6908  -46.4146 C   0  0  0  1  0  4  0  0  0  0  0  0
  124.3470  102.9640  -45.2180 C   0  0  0  1  0  3  0  0  0  0  0  0
  124.2607  109.0866  -45.0128 C   0  0  0  1  0  4  0  0  0  0  0  0
  124.4050  106.2300  -42.6310 O   0  0  0  1  0  2  0  0  0  0  0  0
  125.1380  103.6400  -40.9640 I   0  0  0  1  0  1  0  0  0  0  0  0
  124.3140  101.3570  -46.5570 I   0  0  0  1  0  1  0  0  0  0  0  0
  122.8192  107.1160  -44.7478 H   0  0  0  1  0  1  0  0  0  0  0  0
  123.3628  106.6386  -46.3919 H   0  0  0  1  0  1  0  0  0  0  0  0
  125.3094  107.4703  -44.4578 H   0  0  0  1  0  1  0  0  0  0  0  0
  124.9170  101.7840  -43.5040 H   0  0  0  1  0  1  0  0  0  0  0  0
  123.7830  104.3910  -46.7280 H   0  0  0  1  0  1  0  0  0  0  0  0
  126.4678  108.4532  -46.2805 H   0  0  0  1  0  1  0  0  0  0  0  0
  125.1273  107.8968  -47.3396 H   0  0  0  1  0  1  0  0  0  0  0  0
  126.1514  106.6967  -46.4818 H   0  0  0  1  0  1  0  0  0  0  0  0
  124.1620  107.0120  -43.1120 H   0  0  0  1  0  1  0  0  0  0  0  0
  125.1083  109.7835  -44.9465 H   0  0  0  1  0  1  0  0  0  0  0  0
  123.6992  109.1023  -44.0663 H   0  0  0  1  0  1  0  0  0  0  0  0
  123.5990  109.3908  -45.8366 H   0  0  0  1  0  1  0  0  0  0  0  0
  1  5  1  0  0  0  0
  1  8  1  0  0  0  0
  1 10  1  0  0  0  0
  1 16  1  0  0  0  0
  2  3  2  0  0  0  0
  2  5  1  0  0  0  0
  2  7  1  0  0  0  0
  3  4  1  0  0  0  0
  3 11  1  0  0  0  0
  4  6  2  0  0  0  0
  4 12  1  0  0  0  0
  5 14  1  0  0  0  0
  5 15  1  0  0  0  0
  6  9  1  0  0  0  0
  6 17  1  0  0  0  0
  7  9  2  0  0  0  0
  7 18  1  0  0  0  0
  8 19  1  0  0  0  0
  8 20  1  0  0  0  0
  8 21  1  0  0  0  0
  9 13  1  0  0  0  0
 10 23  1  0  0  0  0
 10 24  1  0  0  0  0
 10 25  1  0  0  0  0
 11 22  1  0  0  0  0
M  END
> <ConfScore>
-0.37476

$$$$
4agl


 25 25  0  0  0  0  0  0  0  0999 V2000
  124.3737  107.8473  -44.6679 N   0  3  0  1  0  4  0  0  0  0  0  0
  124.0410  105.3610  -44.8150 C   0  0  0  1  0  3  0  0  0  0  0  0
  124.3680  105.1510  -43.4700 C   0  0  0  1  0  3  0  0  0  0  0  0
  124.6850  103.8760  -43.0070 C   0  0  0  1  0  3  0  0  0  0  0  0
  123.6670  106.7390  -45.3390 C   0  0  0  1  0  4  0  0  0  0  0  0
  124.6740  102.7730  -43.8740 C   0  0  0  1  0  3  0  0  0  0  0  0
  124.0340  104.2490  -45.6830 C   0  0  0  1  0  3  0  0  0  0  0  0
  125.7103  107.4865  -44.1537 C   0  0  0  1  0  4  0  0  0  0  0  0
  124.3470  102.9640  -45.2180 C   0  0  0  1  0  3  0  0  0  0  0  0
  124.4240  109.0563  -45.5048 C   0  0  0  1  0  4  0  0  0  0  0  0
  124.4050  106.2300  -42.6310 O   0  0  0  1  0  2  0  0  0  0  0  0
  125.1380  103.6400  -40.9640 I   0  0  0  1  0  1  0  0  0  0  0  0
  124.3140  101.3570  -46.5570 I   0  0  0  1  0  1  0  0  0  0  0  0
  122.5854  106.8816  -45.1972 H   0  0  0  1  0  1  0  0  0  0  0  0
  123.9032  106.7772  -46.4133 H   0  0  0  1  0  1  0  0  0  0  0  0
  123.8181  108.0811  -43.8609 H   0  0  0  1  0  1  0  0  0  0  0  0
  124.9170  101.7840  -43.5040 H   0  0  0  1  0  1  0  0  0  0  0  0
  123.7830  104.3910  -46.7280 H   0  0  0  1  0  1  0  0  0  0  0  0
  126.3843  107.2789  -44.9981 H   0  0  0  1  0  1  0  0  0  0  0  0
  125.6297  106.5911  -43.5198 H   0  0  0  1  0  1  0  0  0  0  0  0
  126.1130  108.3202  -43.5601 H   0  0  0  1  0  1  0  0  0  0  0  0
  124.1620  107.0120  -43.1120 H   0  0  0  1  0  1  0  0  0  0  0  0
  123.4171  109.2832  -45.8831 H   0  0  0  1  0  1  0  0  0  0  0  0
  125.1042  108.8870  -46.3534 H   0  0  0  1  0  1  0  0  0  0  0  0
  124.7898  109.9020  -44.9049 H   0  0  0  1  0  1  0  0  0  0  0  0
  1  5  1  0  0  0  0
  1  8  1  0  0  0  0
  1 10  1  0  0  0  0
  1 16  1  0  0  0  0
  2  3  2  0  0  0  0
  2  5  1  0  0  0  0
  2  7  1  0  0  0  0
  3  4  1  0  0  0  0
  3 11  1  0  0  0  0
  4  6  2  0  0  0  0
  4 12  1  0  0  0  0
  5 14  1  0  0  0  0
  5 15  1  0  0  0  0
  6  9  1  0  0  0  0
  6 17  1  0  0  0  0
  7  9  2  0  0  0  0
  7 18  1  0  0  0  0
  8 19  1  0  0  0  0
  8 20  1  0  0  0  0
  8 21  1  0  0  0  0
  9 13  1  0  0  0  0
 10 23  1  0  0  0  0
 10 24  1  0  0  0  0
 10 25  1  0  0  0  0
 11 22  1  0  0  0  0
M  END
> <ConfScore>
-0.365112

$$$$
4agl


 25 25  0  0  0  0  0  0  0  0999 V2000
  124.3737  107.8473  -44.6679 N   0  3  0  1  0  4  0  0  0  0  0  0
  124.0410  105.3610  -44.8150 C   0  0  0  1  0  3  0  0  0  0  0  0
  124.3680  105.1510  -43.4700 C   0  0  0  1  0  3  0  0  0  0  0  0
  124.6850  103.8760  -43.0070 C   0  0  0  1  0  3  0  0  0  0  0  0
  123.6670  106.7390  -45.3390 C   0  0  0  1  0  4  0  0  0  0  0  0
  124.6740  102.7730  -43.8740 C   0  0  0  1  0  3  0  0  0  0  0  0
  124.0340  104.2490  -45.6830 C   0  0  0  1  0  3  0  0  0  0  0  0
  125.7103  107.4865  -44.1537 C   0  0  0  1  0  4  0  0  0  0  0  0
  124.3470  102.9640  -45.2180 C   0  0  0  1  0  3  0  0  0  0  0  0
  124.4240  109.0563  -45.5048 C   0  0  0  1  0  4  0  0  0  0  0  0
  124.4050  106.2300  -42.6310 O   0  0  0  1  0  2  0  0  0  0  0  0
  125.1380  103.6400  -40.9640 I   0  0  0  1  0  1  0  0  0  0  0  0
  124.3140  101.3570  -46.5570 I   0  0  0  1  0  1  0  0  0  0  0  0
  122.5854  106.8816  -45.1972 H   0  0  0  1  0  1  0  0  0  0  0  0
  123.9032  106.7772  -46.4133 H   0  0  0  1  0  1  0  0  0  0  0  0
  123.8181  108.0811  -43.8609 H   0  0  0  1  0  1  0  0  0  0  0  0
  124.9170  101.7840  -43.5040 H   0  0  0  1  0  1  0  0  0  0  0  0
  123.7830  104.3910  -46.7280 H   0  0  0  1  0  1  0  0  0  0  0  0
  125.6298  106.5907  -43.5200 H   0  0  0  1  0  1  0  0  0  0  0  0
  126.1121  108.3209  -43.5602 H   0  0  0  1  0  1  0  0  0  0  0  0
  126.3848  107.2789  -44.9971 H   0  0  0  1  0  1  0  0  0  0  0  0
  124.1620  107.0120  -43.1120 H   0  0  0  1  0  1  0  0  0  0  0  0
  123.4171  109.2832  -45.8831 H   0  0  0  1  0  1  0  0  0  0  0  0
  125.1042  108.8870  -46.3534 H   0  0  0  1  0  1  0  0  0  0  0  0
  124.7898  109.9020  -44.9049 H   0  0  0  1  0  1  0  0  0  0  0  0
  1  5  1  0  0  0  0
  1  8  1  0  0  0  0
  1 10  1  0  0  0  0
  1 16  1  0  0  0  0
  2  3  2  0  0  0  0
  2  5  1  0  0  0  0
  2  7  1  0  0  0  0
  3  4  1  0  0  0  0
  3 11  1  0  0  0  0
  4  6  2  0  0  0  0
  4 12  1  0  0  0  0
  5 14  1  0  0  0  0
  5 15  1  0  0  0  0
  6  9  1  0  0  0  0
  6 17  1  0  0  0  0
  7  9  2  0  0  0  0
  7 18  1  0  0  0  0
  8 19  1  0  0  0  0
  8 20  1  0  0  0  0
  8 21  1  0  0  0  0
  9 13  1  0  0  0  0
 10 23  1  0  0  0  0
 10 24  1  0  0  0  0
 10 25  1  0  0  0  0
 11 22  1  0  0  0  0
M  END
> <ConfScore>
-0.365112

$$$$
4agl


 25 25  0  0  0  0  0  0  0  0999 V2000
  124.5868  107.2580  -46.3698 N   0  3  0  1  0  4  0  0  0  0  0  0
  124.0410  105.3610  -44.8150 C   0  0  0  1  0  3  0  0  0  0  0  0
  124.3680  105.1510  -43.4700 C   0  0  0  1  0  3  0  0  0  0  0  0
  124.6850  103.8760  -43.0070 C   0  0  0  1  0  3  0  0  0  0  0  0
  123.6670  106.7390  -45.3390 C   0  0  0  1  0  4  0  0  0  0  0  0
  124.6740  102.7730  -43.8740 C   0  0  0  1  0  3  0  0  0  0  0  0
  124.0340  104.2490  -45.6830 C   0  0  0  1  0  3  0  0  0  0  0  0
  125.3621  106.2124  -47.0676 C   0  0  0  1  0  4  0  0  0  0  0  0
  124.3470  102.9640  -45.2180 C   0  0  0  1  0  3  0  0  0  0  0  0
  123.9038  108.1500  -47.3197 C   0  0  0  1  0  4  0  0  0  0  0  0
  124.4050  106.2300  -42.6310 O   0  0  0  1  0  2  0  0  0  0  0  0
  125.1380  103.6400  -40.9640 I   0  0  0  1  0  1  0  0  0  0  0  0
  124.3140  101.3570  -46.5570 I   0  0  0  1  0  1  0  0  0  0  0  0
  123.6631  107.4420  -44.4928 H   0  0  0  1  0  1  0  0  0  0  0  0
  122.6569  106.6826  -45.7724 H   0  0  0  1  0  1  0  0  0  0  0  0
  125.2604  107.8242  -45.8796 H   0  0  0  1  0  1  0  0  0  0  0  0
  124.9170  101.7840  -43.5040 H   0  0  0  1  0  1  0  0  0  0  0  0
  123.7830  104.3910  -46.7280 H   0  0  0  1  0  1  0  0  0  0  0  0
  126.0194  106.6809  -47.8153 H   0  0  0  1  0  1  0  0  0  0  0  0
  124.6721  105.5179  -47.5692 H   0  0  0  1  0  1  0  0  0  0  0  0
  125.9724  105.6594  -46.3388 H   0  0  0  1  0  1  0  0  0  0  0  0
  124.1620  107.0120  -43.1120 H   0  0  0  1  0  1  0  0  0  0  0  0
  124.6493  108.6555  -47.9499 H   0  0  0  1  0  1  0  0  0  0  0  0
  123.3237  108.9025  -46.7641 H   0  0  0  1  0  1  0  0  0  0  0  0
  123.2265  107.5600  -47.9539 H   0  0  0  1  0  1  0  0  0  0  0  0
  1  5  1  0  0  0  0
  1  8  1  0  0  0  0
  1 10  1  0  0  0  0
  1 16  1  0  0  0  0
  2  3  2  0  0  0  0
  2  5  1  0  0  0  0
  2  7  1  0  0  0  0
  3  4  1  0  0  0  0
  3 11  1  0  0  0  0
  4  6  2  0  0  0  0
  4 12  1  0  0  0  0
  5 14  1  0  0  0  0
  5 15  1  0  0  0  0
  6  9  1  0  0  0  0
  6 17  1  0  0  0  0
  7  9  2  0  0  0  0
  7 18  1  0  0  0  0
  8 19  1  0  0  0  0
  8 20  1  0  0  0  0
  8 21  1  0  0  0  0
  9 13  1  0  0  0  0
 10 23  1  0  0  0  0
 10 24  1  0  0  0  0
 10 25  1  0  0  0  0
 11 22  1  0  0  0  0
M  END
> <ConfScore>
-0.299329

$$$$
4agl


 25 25  0  0  0  0  0  0  0  0999 V2000
  122.7460  106.7119  -46.4919 N   0  3  0  1  0  4  0  0  0  0  0  0
  124.0410  105.3610  -44.8150 C   0  0  0  1  0  3  0  0  0  0  0  0
  124.3680  105.1510  -43.4700 C   0  0  0  1  0  3  0  0  0  0  0  0
  124.6850  103.8760  -43.0070 C   0  0  0  1  0  3  0  0  0  0  0  0
  123.6670  106.7390  -45.3390 C   0  0  0  1  0  4  0  0  0  0  0  0
  124.6740  102.7730  -43.8740 C   0  0  0  1  0  3  0  0  0  0  0  0
  124.0340  104.2490  -45.6830 C   0  0  0  1  0  3  0  0  0  0  0  0
  121.9648  105.4643  -46.6103 C   0  0  0  1  0  4  0  0  0  0  0  0
  124.3470  102.9640  -45.2180 C   0  0  0  1  0  3  0  0  0  0  0  0
  121.8787  107.8996  -46.5328 C   0  0  0  1  0  4  0  0  0  0  0  0
  124.4050  106.2300  -42.6310 O   0  0  0  1  0  2  0  0  0  0  0  0
  125.1380  103.6400  -40.9640 I   0  0  0  1  0  1  0  0  0  0  0  0
  124.3140  101.3570  -46.5570 I   0  0  0  1  0  1  0  0  0  0  0  0
  124.5892  107.2554  -45.6445 H   0  0  0  1  0  1  0  0  0  0  0  0
  123.1859  107.3009  -44.5240 H   0  0  0  1  0  1  0  0  0  0  0  0
  123.3287  106.7551  -47.3124 H   0  0  0  1  0  1  0  0  0  0  0  0
  124.9170  101.7840  -43.5040 H   0  0  0  1  0  1  0  0  0  0  0  0
  123.7830  104.3910  -46.7280 H   0  0  0  1  0  1  0  0  0  0  0  0
  122.6501  104.6136  -46.7416 H   0  0  0  1  0  1  0  0  0  0  0  0
  121.2942  105.5329  -47.4795 H   0  0  0  1  0  1  0  0  0  0  0  0
  121.3681  105.3163  -45.6983 H   0  0  0  1  0  1  0  0  0  0  0  0
  124.1620  107.0120  -43.1120 H   0  0  0  1  0  1  0  0  0  0  0  0
  122.4914  108.8058  -46.4242 H   0  0  0  1  0  1  0  0  0  0  0  0
  121.1497  107.8500  -45.7096 H   0  0  0  1  0  1  0  0  0  0  0  0
  121.3449  107.9304  -47.4936 H   0  0  0  1  0  1  0  0  0  0  0  0
  1  5  1  0  0  0  0
  1  8  1  0  0  0  0
  1 10  1  0  0  0  0
  1 16  1  0  0  0  0
  2  3  2  0  0  0  0
  2  5  1  0  0  0  0
  2  7  1  0  0  0  0
  3  4  1  0  0  0  0
  3 11  1  0  0  0  0
  4  6  2  0  0  0  0
  4 12  1  0  0  0  0
  5 14  1  0  0  0  0
  5 15  1  0  0  0  0
  6  9  1  0  0  0  0
  6 17  1  0  0  0  0
  7  9  2  0  0  0  0
  7 18  1  0  0  0  0
  8 19  1  0  0  0  0
  8 20  1  0  0  0  0
  8 21  1  0  0  0  0
  9 13  1  0  0  0  0
 10 23  1  0  0  0  0
 10 24  1  0  0  0  0
 10 25  1  0  0  0  0
 11 22  1  0  0  0  0
M  END
> <ConfScore>
-0.270079

$$$$
