@<TRIPOS>MOLECULE
HEM.pdb
 73 80 0 0 0
SMALL
GASTEIGER
Energy = 0

@<TRIPOS>ATOM
      1 FE         14.8030   27.9550    4.7430 Fe    154  HEM154      0.0000
      2  CHA       16.1600   31.0220    5.0320 C.cat 154  HEM154      0.0000
      3  CHB       14.1410   27.9180    8.1320 C.cat 154  HEM154      0.0000
      4  CHC       13.6230   24.8440    4.4980 C.cat 154  HEM154      0.0000
      5  CHD       15.5500   27.9400    1.3500 C.cat 154  HEM154      0.0000
      6  NA        15.1320   29.2160    6.2810 N.ar  154  HEM154      0.0000
      7  C1A       15.6270   30.5130    6.2000 C.ar  154  HEM154      0.0000
      8  C2A       15.4980   31.1680    7.4910 C.ar  154  HEM154      0.0000
      9  C3A       14.9400   30.2810    8.3140 C.ar  154  HEM154      0.0000
     10  C4A       14.7010   29.0510    7.5870 C.ar  154  HEM154      0.0000
     11  CMA       14.5610   30.4030    9.8100 C.3   154  HEM154      0.0000
     12  CAA       15.9070   32.6110    7.8390 C.3   154  HEM154      0.0000
     13  CBA       15.1330   33.8530    7.4480 C.3   154  HEM154      0.0000
     14  CGA       13.7620   33.8610    6.8330 C.2   154  HEM154      0.0000
     15  O1A       13.0530   34.8870    6.9850 O.co2 154  HEM154      0.0000
     16  O2A       13.3390   32.8700    6.1860 O.co2 154  HEM154      0.0000
     17  NB        14.0670   26.6130    6.0590 N.ar  154  HEM154      0.0000
     18  C1B       13.7860   26.7970    7.4060 C.ar  154  HEM154      0.0000
     19  C2B       13.0950   25.6380    7.9420 C.ar  154  HEM154      0.0000
     20  C3B       12.9520   24.7620    6.9420 C.ar  154  HEM154      0.0000
     21  C4B       13.5470   25.3680    5.7710 C.ar  154  HEM154      0.0000
     22  CMB       12.6440   25.5000    9.4150 C.3   154  HEM154      0.0000
     23  CAB       12.2830   23.3760    6.9340 C.cat 154  HEM154      0.0000
     24  CBB       12.6390   22.3100    7.6630 C.cat 154  HEM154      0.0000
     25  NC        14.5920   26.6800    3.1910 N.ar  154  HEM154      0.0000
     26  C1C       14.0950   25.3900    3.3230 C.ar  154  HEM154      0.0000
     27  C2C       14.3420   24.6600    2.1010 C.ar  154  HEM154      0.0000
     28  C3C       14.9770   25.4870    1.2570 C.ar  154  HEM154      0.0000
     29  C4C       15.1620   26.7530    1.9380 C.ar  154  HEM154      0.0000
     30  CMC       14.0550   23.1460    1.9720 C.3   154  HEM154      0.0000
     31  CAC       15.5340   25.1780   -0.1490 C.3   154  HEM154      0.0000
     32  CBC       15.2020   24.1230   -0.8910 C.3   154  HEM154      0.0000
     33  ND        15.6390   29.2510    3.4370 N.ar  154  HEM154      0.0000
     34  C1D       15.9490   29.0250    2.1070 C.ar  154  HEM154      0.0000
     35  C2D       16.7670   30.1150    1.6150 C.ar  154  HEM154      0.0000
     36  C3D       16.9430   30.9580    2.6280 C.ar  154  HEM154      0.0000
     37  C4D       16.2390   30.4480    3.7840 C.ar  154  HEM154      0.0000
     38  CMD       17.2960   30.2000    0.1610 C.3   154  HEM154      0.0000
     39  CAD       17.7310   32.2860    2.6660 C.3   154  HEM154      0.0000
     40  CBD       19.2150   32.1690    3.0260 C.3   154  HEM154      0.0000
     41  CGD       19.8480   33.5410    2.9980 C.2   154  HEM154      0.0000
     42  O1D       20.2220   33.9730    1.8700 O.co2 154  HEM154      0.0000
     43  O2D       19.9250   34.1430    4.1020 O.co2 154  HEM154      0.0000
     44  HHA       16.6340   31.9630    5.1580 H     154  HEM154      0.0000
     45  HHB       13.8670   27.9570    9.1080 H     154  HEM154      0.0000
     46  HHC       13.2040   23.9290    4.4030 H     154  HEM154      0.0000
     47  HHD       15.8380   27.9320    0.3860 H     154  HEM154      0.0000
     48 1HMA       13.7020   29.9050   10.1180 H     154  HEM154      0.0000
     49 2HMA       14.4230   31.3700   10.2230 H     154  HEM154      0.0000
     50 3HMA       15.3700   30.0380   10.4070 H     154  HEM154      0.0000
     51 1HAA       16.8840   32.9440    7.5510 H     154  HEM154      0.0000
     52 2HAA       16.2510   32.6080    8.8420 H     154  HEM154      0.0000
     53 1HBA       15.6510   34.3910    6.7880 H     154  HEM154      0.0000
     54 2HBA       14.7490   34.1950    8.3190 H     154  HEM154      0.0000
     55 1HMB       12.8050   26.2970   10.0780 H     154  HEM154      0.0000
     56 2HMB       11.6020   25.4000    9.5370 H     154  HEM154      0.0000
     57 3HMB       12.9100   24.7220   10.0760 H     154  HEM154      0.0000
     58  HAB       11.4490   22.9560    6.3960 H     154  HEM154      0.0000
     59 1HBB       12.1780   21.2880    7.7600 H     154  HEM154      0.0000
     60 2HBB       13.4990   22.3970    8.3760 H     154  HEM154      0.0000
     61 1HMC       13.1460   22.9560    2.4820 H     154  HEM154      0.0000
     62 2HMC       14.7100   22.4780    2.4750 H     154  HEM154      0.0000
     63 3HMC       13.9420   22.7610    0.9860 H     154  HEM154      0.0000
     64  HAC       15.9800   25.9600   -0.6970 H     154  HEM154      0.0000
     65 1HBC       15.3440   24.2290   -1.9520 H     154  HEM154      0.0000
     66 2HBC       14.7000   23.1560   -0.8850 H     154  HEM154      0.0000
     67 1HMD       16.7330   30.9300   -0.4200 H     154  HEM154      0.0000
     68 2HMD       18.2770   30.5800    0.1760 H     154  HEM154      0.0000
     69 3HMD       17.2560   29.1800   -0.1720 H     154  HEM154      0.0000
     70 1HAD       17.4870   32.8350    3.5480 H     154  HEM154      0.0000
     71 2HAD       17.4590   32.4750    1.6400 H     154  HEM154      0.0000
     72 1HBD       19.7370   31.3320    2.5920 H     154  HEM154      0.0000
     73 2HBD       19.1120   31.5380    3.8790 H     154  HEM154      0.0000
@<TRIPOS>BOND
     1    65    32    1
     2    32    66    1
     3    32    31    1
     4    64    31    1
     5    67    38    1
     6    69    38    1
     7    31    28    1
     8    38    68    1
     9    38    35    1
    10    47     5    1
    11    63    30    1
    12    28    29   ar
    13    28    27   ar
    14     5    29    1
    15     5    34    2
    16    35    34   ar
    17    35    36   ar
    18    71    39    1
    19    42    41   ar
    20    29    25   ar
    21    30    27    1
    22    30    62    1
    23    30    61    1
    24    27    26   ar
    25    34    33   ar
    26    72    40    1
    27    36    39    1
    28    36    37   ar
    29    39    40    1
    30    39    70    1
    31    41    40    1
    32    41    43   ar
    33    40    73    1
    34    25    26   ar
    35    25     1    1
    36    26     4    2
    37    33    37   ar
    38    33     1    1
    39    37     2    2
    40    46     4    1
    41     4    21    1
    42     1    17    1
    43     1     6    1
    44     2    44    1
    45     2     7    1
    46    21    17   ar
    47    21    20   ar
    48    17    18   ar
    49    16    14   ar
    50     7     6   ar
    51     7     8   ar
    52     6    10   ar
    53    58    23    1
    54    53    13    1
    55    14    15   ar
    56    14    13    1
    57    23    20    1
    58    23    24    2
    59    20    19   ar
    60    18    19   ar
    61    18     3    1
    62    13    12    1
    63    13    54    1
    64     8    12    1
    65     8     9   ar
    66    51    12    1
    67    10     3    2
    68    10     9   ar
    69    24    59    1
    70    24    60    1
    71    12    52    1
    72    19    22    1
    73     3    45    1
    74     9    11    1
    75    22    56    1
    76    22    57    1
    77    22    55    1
    78    11    48    1
    79    11    49    1
    80    11    50    1
