Written by BCL::WriteToMDL,set1_8_ligand.pdb
  MOE2012           3D

 29 30  0  0  0  0  0  0  0  0999 V2000
   20.0830   34.2930  112.2200 C   0  0  0  1  0  4  0  0  0  0  0  0
   20.7070   34.5890  110.8970 C   0  0  0  1  0  4  0  0  0  0  0  0
   21.9780   35.5440  111.0290 C   0  0  0  1  0  4  0  0  0  0  0  0
   22.3490   35.9910  112.4640 C   0  0  0  1  0  4  0  0  0  0  0  0
   22.1740   34.8880  113.5380 C   0  0  0  1  0  4  0  0  0  0  0  0
   21.9750   35.3560  115.0110 C   0  0  0  1  0  4  0  0  0  0  0  0
   21.0120   33.3270  110.2660 O   0  0  0  1  0  2  0  0  0  0  0  0
   21.7080   36.7660  110.3030 O   0  0  0  1  0  2  0  0  0  0  0  0
   23.7120   36.4430  112.5220 O   0  0  0  1  0  2  0  0  0  0  0  0
   22.5080   36.6620  115.3030 O   0  0  0  1  0  2  0  0  0  0  0  0
   21.0370   33.9920  113.2870 N   0  3  0  1  0  4  0  0  0  0  0  0
   20.4420   35.2890  115.1520 C   0  0  0  1  0  4  0  0  0  0  0  0
   20.2730   33.8860  114.5330 C   0  0  0  1  0  4  0  0  0  0  0  0
   19.4237   33.4333  112.1005 H   0  0  0  1  0  1  0  0  0  0  0  0
   19.4975   35.1614  112.5220 H   0  0  0  1  0  1  0  0  0  0  0  0
   20.0119   35.1474  110.2700 H   0  0  0  1  0  1  0  0  0  0  0  0
   22.8070   34.9480  110.6473 H   0  0  0  1  0  1  0  0  0  0  0  0
   21.6500   36.7960  112.6909 H   0  0  0  1  0  1  0  0  0  0  0  0
   23.1409   34.3947  113.4384 H   0  0  0  1  0  1  0  0  0  0  0  0
   22.5202   34.7387  115.7250 H   0  0  0  1  0  1  0  0  0  0  0  0
   21.9720   33.0141  110.5541 H   0  0  0  1  0  1  0  0  0  0  0  0
   22.5615   37.3775  110.3164 H   0  0  0  1  0  1  0  0  0  0  0  0
   23.7321   37.4921  112.5594 H   0  0  0  1  0  1  0  0  0  0  0  0
   23.5349   36.5838  115.5075 H   0  0  0  1  0  1  0  0  0  0  0  0
   21.5160   33.1013  112.9376 H   0  0  0  1  0  1  0  0  0  0  0  0
   19.9340   36.0642  114.5784 H   0  0  0  1  0  1  0  0  0  0  0  0
   20.1143   35.3312  116.1907 H   0  0  0  1  0  1  0  0  0  0  0  0
   20.6874   33.1163  115.1842 H   0  0  0  1  0  1  0  0  0  0  0  0
   19.2238   33.6678  114.3337 H   0  0  0  1  0  1  0  0  0  0  0  0
  1  2  1  0  0  0  0
  1 11  1  0  0  0  0
  1 14  1  0  0  0  0
  1 15  1  0  0  0  0
  2  3  1  0  0  0  0
  2  7  1  0  0  0  0
  2 16  1  0  0  0  0
  3  4  1  0  0  0  0
  3  8  1  0  0  0  0
  3 17  1  0  0  0  0
  4  5  1  0  0  0  0
  4  9  1  0  0  0  0
  4 18  1  0  0  0  0
  5  6  1  0  0  0  0
  5 11  1  0  0  0  0
  5 19  1  0  0  0  0
  6 10  1  0  0  0  0
  6 12  1  0  0  0  0
  6 20  1  0  0  0  0
  7 21  1  0  0  0  0
  8 22  1  0  0  0  0
  9 23  1  0  0  0  0
 10 24  1  0  0  0  0
 11 13  1  0  0  0  0
 11 25  1  0  0  0  0
 12 13  1  0  0  0  0
 12 26  1  0  0  0  0
 12 27  1  0  0  0  0
 13 28  1  0  0  0  0
 13 29  1  0  0  0  0
M  END
$$$$
