3PBL_ETQ_A_1200
  RCSB PDB10041311333D
Coordinates from PDB:3PBL:A:1200 Model:1 without hydrogens
 48 49  0  0  0  0  0  0  0  0999 V2000
   -0.8080  -12.3360   10.5520 C   0  0  0  1  0  3  0  0  0  0  0  0
    1.1690  -15.2760   11.4810 N   0  0  0  1  0  3  0  0  0  0  0  0
   -1.5290  -12.2300   11.6990 O   0  0  0  1  0  2  0  0  0  0  0  0
    1.6090  -12.6560    6.7620 Cl  0  0  0  1  0  1  0  0  0  0  0  0
   -0.8770  -11.3050    9.6070 C   0  0  0  1  0  3  0  0  0  0  0  0
    0.6270  -18.2630   11.1450 N   0  0  0  1  0  3  0  0  0  0  0  0
    1.5050  -14.6500    8.8870 O   0  0  0  1  0  2  0  0  0  0  0  0
   -0.1100  -11.4090    8.4450 C   0  0  0  1  0  3  0  0  0  0  0  0
   -0.8960  -14.7200   12.2060 O   0  0  0  1  0  1  0  0  0  0  0  0
    0.6880  -12.5280    8.2200 C   0  0  0  1  0  3  0  0  0  0  0  0
    0.7350  -13.5620    9.1540 C   0  0  0  1  0  3  0  0  0  0  0  0
    0.7760  -15.5290    8.0190 C   0  0  0  1  0  4  0  0  0  0  0  0
   -0.0250  -13.4780   10.3280 C   0  0  0  1  0  3  0  0  0  0  0  0
    0.0360  -14.5730   11.4180 C   0  0  0  1  0  3  0  0  0  0  0  0
    1.4140  -16.3390   12.4760 C   0  0  0  1  0  4  0  0  0  0  0  0
    0.3760  -17.4610   12.3600 C   0  0  0  1  0  4  0  0  0  0  0  0
    0.5220  -18.4140   13.5440 C   0  0  0  1  0  4  0  0  0  0  0  0
    1.5090  -19.4450   13.0220 C   0  0  0  1  0  4  0  0  0  0  0  0
    1.0590  -19.6070   11.5780 C   0  0  0  1  0  4  0  0  0  0  0  0
   -0.6220  -18.3630   10.3780 C   0  0  0  1  0  4  0  0  0  0  0  0
   -0.3200  -18.6260    8.9100 C   0  0  0  1  0  4  0  0  0  0  0  0
   -1.6890  -10.0110    9.7860 C   0  0  0  1  0  4  0  0  0  0  0  0
   -3.1870  -10.2710    9.9600 C   0  0  0  1  0  4  0  0  0  0  0  0
    1.9407  -15.0575   10.7727 H   0  0  0  1  0  1  0  0  0  0  0  0
   -0.8760  -12.1546   12.5178 H   0  0  0  1  0  1  0  0  0  0  0  0
   -0.1360  -10.6071    7.7072 H   0  0  0  1  0  1  0  0  0  0  0  0
    1.4746  -16.1638    7.4738 H   0  0  0  1  0  1  0  0  0  0  0  0
    0.1931  -14.9394    7.3114 H   0  0  0  1  0  1  0  0  0  0  0  0
    0.1064  -16.1518    8.6121 H   0  0  0  1  0  1  0  0  0  0  0  0
    1.3607  -15.9083   13.4759 H   0  0  0  1  0  1  0  0  0  0  0  0
    2.4075  -16.7564   12.3121 H   0  0  0  1  0  1  0  0  0  0  0  0
   -0.6133  -17.0044   12.3299 H   0  0  0  1  0  1  0  0  0  0  0  0
   -0.4323  -18.8761   13.7966 H   0  0  0  1  0  1  0  0  0  0  0  0
    0.9187  -17.8973   14.4179 H   0  0  0  1  0  1  0  0  0  0  0  0
    1.4284  -20.3838   13.5699 H   0  0  0  1  0  1  0  0  0  0  0  0
    2.5335  -19.0773   13.0790 H   0  0  0  1  0  1  0  0  0  0  0  0
    1.8844  -19.9591   10.9593 H   0  0  0  1  0  1  0  0  0  0  0  0
    0.2302  -20.3120   11.5145 H   0  0  0  1  0  1  0  0  0  0  0  0
   -1.1758  -17.4286   10.4694 H   0  0  0  1  0  1  0  0  0  0  0  0
   -1.2224  -19.1820   10.7739 H   0  0  0  1  0  1  0  0  0  0  0  0
    0.6461  -19.1228    8.8206 H   0  0  0  1  0  1  0  0  0  0  0  0
   -0.2930  -17.6797    8.3697 H   0  0  0  1  0  1  0  0  0  0  0  0
   -1.0967  -19.2638    8.4881 H   0  0  0  1  0  1  0  0  0  0  0  0
   -1.5442   -9.3844    8.9059 H   0  0  0  1  0  1  0  0  0  0  0  0
   -1.3213   -9.4885   10.6691 H   0  0  0  1  0  1  0  0  0  0  0  0
   -3.5152   -9.8778   10.9222 H   0  0  0  1  0  1  0  0  0  0  0  0
   -3.3760  -11.3438    9.9227 H   0  0  0  1  0  1  0  0  0  0  0  0
   -3.7367   -9.7766    9.1591 H   0  0  0  1  0  1  0  0  0  0  0  0
  1  3  1  0  0  0  0
  1  5  2  0  0  0  0
  1 13  1  0  0  0  0
  2 14  1  0  0  0  0
  2 15  1  0  0  0  0
  2 24  1  0  0  0  0
  3 25  1  0  0  0  0
  4 10  1  0  0  0  0
  5  8  1  0  0  0  0
  5 22  1  0  0  0  0
  6 16  1  0  0  0  0
  6 19  1  0  0  0  0
  6 20  1  0  0  0  0
  7 11  1  0  0  0  0
  7 12  1  0  0  0  0
  8 10  2  0  0  0  0
  8 26  1  0  0  0  0
  9 14  2  0  0  0  0
 10 11  1  0  0  0  0
 11 13  2  0  0  0  0
 12 27  1  0  0  0  0
 12 28  1  0  0  0  0
 12 29  1  0  0  0  0
 13 14  1  0  0  0  0
 15 16  1  0  0  0  0
 15 30  1  0  0  0  0
 15 31  1  0  0  0  0
 16 17  1  0  0  0  0
 16 32  1  0  0  0  0
 17 18  1  0  0  0  0
 17 33  1  0  0  0  0
 17 34  1  0  0  0  0
 18 19  1  0  0  0  0
 18 35  1  0  0  0  0
 18 36  1  0  0  0  0
 19 37  1  0  0  0  0
 19 38  1  0  0  0  0
 20 21  1  0  0  0  0
 20 39  1  0  0  0  0
 20 40  1  0  0  0  0
 21 41  1  0  0  0  0
 21 42  1  0  0  0  0
 21 43  1  0  0  0  0
 22 23  1  0  0  0  0
 22 44  1  0  0  0  0
 22 45  1  0  0  0  0
 23 46  1  0  0  0  0
 23 47  1  0  0  0  0
 23 48  1  0  0  0  0
M  END
$$$$
3PBL_ETQ_A_1200
  RCSB PDB10041311333D
Coordinates from PDB:3PBL:A:1200 Model:1 without hydrogens
 48 49  0  0  0  0  0  0  0  0999 V2000
   -0.8080  -12.3360   10.5520 C   0  0  0  1  0  3  0  0  0  0  0  0
    1.1690  -15.2760   11.4810 N   0  0  0  1  0  3  0  0  0  0  0  0
   -1.5290  -12.2300   11.6990 O   0  0  0  1  0  2  0  0  0  0  0  0
    1.6090  -12.6560    6.7620 Cl  0  0  0  1  0  1  0  0  0  0  0  0
   -0.8770  -11.3050    9.6070 C   0  0  0  1  0  3  0  0  0  0  0  0
    0.6270  -18.2630   11.1450 N   0  0  0  1  0  3  0  0  0  0  0  0
    1.5050  -14.6500    8.8870 O   0  0  0  1  0  2  0  0  0  0  0  0
   -0.1100  -11.4090    8.4450 C   0  0  0  1  0  3  0  0  0  0  0  0
   -0.8960  -14.7200   12.2060 O   0  0  0  1  0  1  0  0  0  0  0  0
    0.6880  -12.5280    8.2200 C   0  0  0  1  0  3  0  0  0  0  0  0
    0.7350  -13.5620    9.1540 C   0  0  0  1  0  3  0  0  0  0  0  0
    0.7760  -15.5290    8.0190 C   0  0  0  1  0  4  0  0  0  0  0  0
   -0.0250  -13.4780   10.3280 C   0  0  0  1  0  3  0  0  0  0  0  0
    0.0360  -14.5730   11.4180 C   0  0  0  1  0  3  0  0  0  0  0  0
    1.4140  -16.3390   12.4760 C   0  0  0  1  0  4  0  0  0  0  0  0
    0.3760  -17.4610   12.3600 C   0  0  0  1  0  4  0  0  0  0  0  0
    0.5220  -18.4140   13.5440 C   0  0  0  1  0  4  0  0  0  0  0  0
    1.5090  -19.4450   13.0220 C   0  0  0  1  0  4  0  0  0  0  0  0
    1.0590  -19.6070   11.5780 C   0  0  0  1  0  4  0  0  0  0  0  0
   -0.6220  -18.3630   10.3780 C   0  0  0  1  0  4  0  0  0  0  0  0
   -0.3200  -18.6260    8.9100 C   0  0  0  1  0  4  0  0  0  0  0  0
   -1.6890  -10.0110    9.7860 C   0  0  0  1  0  4  0  0  0  0  0  0
   -1.2246   -9.1814   10.9852 C   0  0  0  1  0  4  0  0  0  0  0  0
    1.9407  -15.0575   10.7727 H   0  0  0  1  0  1  0  0  0  0  0  0
   -0.8760  -12.1546   12.5178 H   0  0  0  1  0  1  0  0  0  0  0  0
   -0.1360  -10.6071    7.7072 H   0  0  0  1  0  1  0  0  0  0  0  0
    1.4746  -16.1638    7.4738 H   0  0  0  1  0  1  0  0  0  0  0  0
    0.1931  -14.9394    7.3114 H   0  0  0  1  0  1  0  0  0  0  0  0
    0.1064  -16.1518    8.6121 H   0  0  0  1  0  1  0  0  0  0  0  0
    1.3607  -15.9083   13.4759 H   0  0  0  1  0  1  0  0  0  0  0  0
    2.4075  -16.7564   12.3121 H   0  0  0  1  0  1  0  0  0  0  0  0
   -0.6133  -17.0044   12.3299 H   0  0  0  1  0  1  0  0  0  0  0  0
   -0.4323  -18.8761   13.7966 H   0  0  0  1  0  1  0  0  0  0  0  0
    0.9187  -17.8973   14.4179 H   0  0  0  1  0  1  0  0  0  0  0  0
    1.4284  -20.3838   13.5699 H   0  0  0  1  0  1  0  0  0  0  0  0
    2.5335  -19.0773   13.0790 H   0  0  0  1  0  1  0  0  0  0  0  0
    1.8844  -19.9591   10.9593 H   0  0  0  1  0  1  0  0  0  0  0  0
    0.2302  -20.3120   11.5145 H   0  0  0  1  0  1  0  0  0  0  0  0
   -1.1758  -17.4286   10.4694 H   0  0  0  1  0  1  0  0  0  0  0  0
   -1.2224  -19.1820   10.7739 H   0  0  0  1  0  1  0  0  0  0  0  0
    0.6461  -19.1228    8.8206 H   0  0  0  1  0  1  0  0  0  0  0  0
   -0.2930  -17.6797    8.3697 H   0  0  0  1  0  1  0  0  0  0  0  0
   -1.0967  -19.2638    8.4881 H   0  0  0  1  0  1  0  0  0  0  0  0
   -2.7369  -10.2745    9.9296 H   0  0  0  1  0  1  0  0  0  0  0  0
   -1.5859   -9.4076    8.8842 H   0  0  0  1  0  1  0  0  0  0  0  0
   -0.2687   -9.5634   11.3436 H   0  0  0  1  0  1  0  0  0  0  0  0
   -1.9648   -9.2497   11.7824 H   0  0  0  1  0  1  0  0  0  0  0  0
   -1.1096   -8.1403   10.6837 H   0  0  0  1  0  1  0  0  0  0  0  0
  1  3  1  0  0  0  0
  1  5  2  0  0  0  0
  1 13  1  0  0  0  0
  2 14  1  0  0  0  0
  2 15  1  0  0  0  0
  2 24  1  0  0  0  0
  3 25  1  0  0  0  0
  4 10  1  0  0  0  0
  5  8  1  0  0  0  0
  5 22  1  0  0  0  0
  6 16  1  0  0  0  0
  6 19  1  0  0  0  0
  6 20  1  0  0  0  0
  7 11  1  0  0  0  0
  7 12  1  0  0  0  0
  8 10  2  0  0  0  0
  8 26  1  0  0  0  0
  9 14  2  0  0  0  0
 10 11  1  0  0  0  0
 11 13  2  0  0  0  0
 12 27  1  0  0  0  0
 12 28  1  0  0  0  0
 12 29  1  0  0  0  0
 13 14  1  0  0  0  0
 15 16  1  0  0  0  0
 15 30  1  0  0  0  0
 15 31  1  0  0  0  0
 16 17  1  0  0  0  0
 16 32  1  0  0  0  0
 17 18  1  0  0  0  0
 17 33  1  0  0  0  0
 17 34  1  0  0  0  0
 18 19  1  0  0  0  0
 18 35  1  0  0  0  0
 18 36  1  0  0  0  0
 19 37  1  0  0  0  0
 19 38  1  0  0  0  0
 20 21  1  0  0  0  0
 20 39  1  0  0  0  0
 20 40  1  0  0  0  0
 21 41  1  0  0  0  0
 21 42  1  0  0  0  0
 21 43  1  0  0  0  0
 22 23  1  0  0  0  0
 22 44  1  0  0  0  0
 22 45  1  0  0  0  0
 23 46  1  0  0  0  0
 23 47  1  0  0  0  0
 23 48  1  0  0  0  0
M  END
> <ConfScore>
-0.197474 

$$$$
3PBL_ETQ_A_1200
  RCSB PDB10041311333D
Coordinates from PDB:3PBL:A:1200 Model:1 without hydrogens
 48 49  0  0  0  0  0  0  0  0999 V2000
   -0.8080  -12.3360   10.5520 C   0  0  0  1  0  3  0  0  0  0  0  0
    0.8973  -15.5695   11.2013 N   0  0  0  1  0  3  0  0  0  0  0  0
   -1.5290  -12.2300   11.6990 O   0  0  0  1  0  2  0  0  0  0  0  0
    1.6090  -12.6560    6.7620 Cl  0  0  0  1  0  1  0  0  0  0  0  0
   -0.8770  -11.3050    9.6070 C   0  0  0  1  0  3  0  0  0  0  0  0
    3.5897  -16.4952   12.3073 N   0  0  0  1  0  3  0  0  0  0  0  0
    1.5050  -14.6500    8.8870 O   0  0  0  1  0  2  0  0  0  0  0  0
   -0.1100  -11.4090    8.4450 C   0  0  0  1  0  3  0  0  0  0  0  0
   -0.6356  -14.4701   12.4425 O   0  0  0  1  0  1  0  0  0  0  0  0
    0.6880  -12.5280    8.2200 C   0  0  0  1  0  3  0  0  0  0  0  0
    0.7350  -13.5620    9.1540 C   0  0  0  1  0  3  0  0  0  0  0  0
    0.7760  -15.5290    8.0190 C   0  0  0  1  0  4  0  0  0  0  0  0
   -0.0250  -13.4780   10.3280 C   0  0  0  1  0  3  0  0  0  0  0  0
    0.0360  -14.5730   11.4180 C   0  0  0  1  0  3  0  0  0  0  0  0
    1.1317  -16.6669   12.1609 C   0  0  0  1  0  4  0  0  0  0  0  0
    2.4698  -17.3652   11.8932 C   0  0  0  1  0  4  0  0  0  0  0  0
    2.5652  -18.6273   12.7471 C   0  0  0  1  0  4  0  0  0  0  0  0
    3.2279  -18.1207   14.0175 C   0  0  0  1  0  4  0  0  0  0  0  0
    4.2443  -17.1314   13.4680 C   0  0  0  1  0  4  0  0  0  0  0  0
    4.5420  -16.3880   11.1938 C   0  0  0  1  0  4  0  0  0  0  0  0
    5.3493  -15.1036   11.3118 C   0  0  0  1  0  4  0  0  0  0  0  0
   -1.6890  -10.0110    9.7860 C   0  0  0  1  0  4  0  0  0  0  0  0
   -1.2246   -9.1814   10.9852 C   0  0  0  1  0  4  0  0  0  0  0  0
    1.4471  -15.5732   10.2834 H   0  0  0  1  0  1  0  0  0  0  0  0
   -0.8760  -12.1546   12.5178 H   0  0  0  1  0  1  0  0  0  0  0  0
   -0.1360  -10.6071    7.7072 H   0  0  0  1  0  1  0  0  0  0  0  0
    1.4746  -16.1638    7.4738 H   0  0  0  1  0  1  0  0  0  0  0  0
    0.1931  -14.9394    7.3114 H   0  0  0  1  0  1  0  0  0  0  0  0
    0.1064  -16.1518    8.6121 H   0  0  0  1  0  1  0  0  0  0  0  0
    0.3265  -17.3960   12.0698 H   0  0  0  1  0  1  0  0  0  0  0  0
    1.1403  -16.2588   13.1716 H   0  0  0  1  0  1  0  0  0  0  0  0
    2.5248  -17.5937   10.8288 H   0  0  0  1  0  1  0  0  0  0  0  0
    3.1777  -19.3861   12.2600 H   0  0  0  1  0  1  0  0  0  0  0  0
    1.5767  -19.0365   12.9556 H   0  0  0  1  0  1  0  0  0  0  0  0
    3.7161  -18.9304   14.5598 H   0  0  0  1  0  1  0  0  0  0  0  0
    2.5078  -17.6277   14.6705 H   0  0  0  1  0  1  0  0  0  0  0  0
    4.4935  -16.3840   14.2212 H   0  0  0  1  0  1  0  0  0  0  0  0
    5.1507  -17.6504   13.1565 H   0  0  0  1  0  1  0  0  0  0  0  0
    3.9943  -16.3831   10.2514 H   0  0  0  1  0  1  0  0  0  0  0  0
    5.2193  -17.2418   11.2165 H   0  0  0  1  0  1  0  0  0  0  0  0
    5.4739  -14.8475   12.3639 H   0  0  0  1  0  1  0  0  0  0  0  0
    4.8240  -14.2964   10.8013 H   0  0  0  1  0  1  0  0  0  0  0  0
    6.3284  -15.2469   10.8546 H   0  0  0  1  0  1  0  0  0  0  0  0
   -2.7369  -10.2745    9.9296 H   0  0  0  1  0  1  0  0  0  0  0  0
   -1.5859   -9.4076    8.8842 H   0  0  0  1  0  1  0  0  0  0  0  0
   -0.2687   -9.5634   11.3436 H   0  0  0  1  0  1  0  0  0  0  0  0
   -1.9648   -9.2497   11.7824 H   0  0  0  1  0  1  0  0  0  0  0  0
   -1.1096   -8.1403   10.6837 H   0  0  0  1  0  1  0  0  0  0  0  0
  1  3  1  0  0  0  0
  1  5  2  0  0  0  0
  1 13  1  0  0  0  0
  2 14  1  0  0  0  0
  2 15  1  0  0  0  0
  2 24  1  0  0  0  0
  3 25  1  0  0  0  0
  4 10  1  0  0  0  0
  5  8  1  0  0  0  0
  5 22  1  0  0  0  0
  6 16  1  0  0  0  0
  6 19  1  0  0  0  0
  6 20  1  0  0  0  0
  7 11  1  0  0  0  0
  7 12  1  0  0  0  0
  8 10  2  0  0  0  0
  8 26  1  0  0  0  0
  9 14  2  0  0  0  0
 10 11  1  0  0  0  0
 11 13  2  0  0  0  0
 12 27  1  0  0  0  0
 12 28  1  0  0  0  0
 12 29  1  0  0  0  0
 13 14  1  0  0  0  0
 15 16  1  0  0  0  0
 15 30  1  0  0  0  0
 15 31  1  0  0  0  0
 16 17  1  0  0  0  0
 16 32  1  0  0  0  0
 17 18  1  0  0  0  0
 17 33  1  0  0  0  0
 17 34  1  0  0  0  0
 18 19  1  0  0  0  0
 18 35  1  0  0  0  0
 18 36  1  0  0  0  0
 19 37  1  0  0  0  0
 19 38  1  0  0  0  0
 20 21  1  0  0  0  0
 20 39  1  0  0  0  0
 20 40  1  0  0  0  0
 21 41  1  0  0  0  0
 21 42  1  0  0  0  0
 21 43  1  0  0  0  0
 22 23  1  0  0  0  0
 22 44  1  0  0  0  0
 22 45  1  0  0  0  0
 23 46  1  0  0  0  0
 23 47  1  0  0  0  0
 23 48  1  0  0  0  0
M  END
> <ConfScore>
-0.41443 

$$$$
3PBL_ETQ_A_1200
  RCSB PDB10041311333D
Coordinates from PDB:3PBL:A:1200 Model:1 without hydrogens
 48 49  0  0  0  0  0  0  0  0999 V2000
   -0.8080  -12.3360   10.5520 C   0  0  0  1  0  3  0  0  0  0  0  0
   -0.6662  -14.3358   12.5282 N   0  0  0  1  0  3  0  0  0  0  0  0
   -1.5290  -12.2300   11.6990 O   0  0  0  1  0  2  0  0  0  0  0  0
    1.6090  -12.6560    6.7620 Cl  0  0  0  1  0  1  0  0  0  0  0  0
   -0.8770  -11.3050    9.6070 C   0  0  0  1  0  3  0  0  0  0  0  0
   -2.9867  -14.5597   14.5015 N   0  0  0  1  0  3  0  0  0  0  0  0
    1.5050  -14.6500    8.8870 O   0  0  0  1  0  2  0  0  0  0  0  0
   -0.1100  -11.4090    8.4450 C   0  0  0  1  0  3  0  0  0  0  0  0
    0.6523  -15.6176   11.2176 O   0  0  0  1  0  1  0  0  0  0  0  0
    0.6880  -12.5280    8.2200 C   0  0  0  1  0  3  0  0  0  0  0  0
    0.7350  -13.5620    9.1540 C   0  0  0  1  0  3  0  0  0  0  0  0
    0.7760  -15.5290    8.0190 C   0  0  0  1  0  4  0  0  0  0  0  0
   -0.0250  -13.4780   10.3280 C   0  0  0  1  0  3  0  0  0  0  0  0
    0.0360  -14.5730   11.4180 C   0  0  0  1  0  3  0  0  0  0  0  0
   -0.8027  -15.3097   13.6295 C   0  0  0  1  0  4  0  0  0  0  0  0
   -1.5514  -14.7022   14.8212 C   0  0  0  1  0  4  0  0  0  0  0  0
   -1.4670  -15.6523   16.0135 C   0  0  0  1  0  4  0  0  0  0  0  0
   -2.7045  -16.5170   15.8386 C   0  0  0  1  0  4  0  0  0  0  0  0
   -3.7316  -15.5017   15.3607 C   0  0  0  1  0  4  0  0  0  0  0  0
   -3.4019  -13.1814   14.7946 C   0  0  0  1  0  4  0  0  0  0  0  0
   -4.6231  -12.8107   13.9659 C   0  0  0  1  0  4  0  0  0  0  0  0
   -1.6890  -10.0110    9.7860 C   0  0  0  1  0  4  0  0  0  0  0  0
   -1.2246   -9.1814   10.9852 C   0  0  0  1  0  4  0  0  0  0  0  0
   -1.1563  -13.3896   12.6251 H   0  0  0  1  0  1  0  0  0  0  0  0
   -0.8760  -12.1546   12.5178 H   0  0  0  1  0  1  0  0  0  0  0  0
   -0.1360  -10.6071    7.7072 H   0  0  0  1  0  1  0  0  0  0  0  0
    1.4746  -16.1638    7.4738 H   0  0  0  1  0  1  0  0  0  0  0  0
    0.1931  -14.9394    7.3114 H   0  0  0  1  0  1  0  0  0  0  0  0
    0.1064  -16.1518    8.6121 H   0  0  0  1  0  1  0  0  0  0  0  0
    0.1906  -15.6190   13.9548 H   0  0  0  1  0  1  0  0  0  0  0  0
   -1.3543  -16.1780   13.2691 H   0  0  0  1  0  1  0  0  0  0  0  0
   -1.1025  -13.7344   15.0446 H   0  0  0  1  0  1  0  0  0  0  0  0
   -1.5000  -15.1048   16.9554 H   0  0  0  1  0  1  0  0  0  0  0  0
   -0.5586  -16.2534   15.9735 H   0  0  0  1  0  1  0  0  0  0  0  0
   -3.0064  -16.9723   16.7818 H   0  0  0  1  0  1  0  0  0  0  0  0
   -2.5415  -17.2963   15.0941 H   0  0  0  1  0  1  0  0  0  0  0  0
   -4.5185  -15.9958   14.7909 H   0  0  0  1  0  1  0  0  0  0  0  0
   -4.1712  -14.9770   16.2090 H   0  0  0  1  0  1  0  0  0  0  0  0
   -2.5848  -12.5010   14.5550 H   0  0  0  1  0  1  0  0  0  0  0  0
   -3.6469  -13.0971   15.8534 H   0  0  0  1  0  1  0  0  0  0  0  0
   -5.3967  -12.4062   14.6186 H   0  0  0  1  0  1  0  0  0  0  0  0
   -5.0022  -13.6990   13.4607 H   0  0  0  1  0  1  0  0  0  0  0  0
   -4.3450  -12.0614   13.2247 H   0  0  0  1  0  1  0  0  0  0  0  0
   -2.7369  -10.2745    9.9296 H   0  0  0  1  0  1  0  0  0  0  0  0
   -1.5859   -9.4076    8.8842 H   0  0  0  1  0  1  0  0  0  0  0  0
   -0.2687   -9.5634   11.3436 H   0  0  0  1  0  1  0  0  0  0  0  0
   -1.9648   -9.2497   11.7824 H   0  0  0  1  0  1  0  0  0  0  0  0
   -1.1096   -8.1403   10.6837 H   0  0  0  1  0  1  0  0  0  0  0  0
  1  3  1  0  0  0  0
  1  5  2  0  0  0  0
  1 13  1  0  0  0  0
  2 14  1  0  0  0  0
  2 15  1  0  0  0  0
  2 24  1  0  0  0  0
  3 25  1  0  0  0  0
  4 10  1  0  0  0  0
  5  8  1  0  0  0  0
  5 22  1  0  0  0  0
  6 16  1  0  0  0  0
  6 19  1  0  0  0  0
  6 20  1  0  0  0  0
  7 11  1  0  0  0  0
  7 12  1  0  0  0  0
  8 10  2  0  0  0  0
  8 26  1  0  0  0  0
  9 14  2  0  0  0  0
 10 11  1  0  0  0  0
 11 13  2  0  0  0  0
 12 27  1  0  0  0  0
 12 28  1  0  0  0  0
 12 29  1  0  0  0  0
 13 14  1  0  0  0  0
 15 16  1  0  0  0  0
 15 30  1  0  0  0  0
 15 31  1  0  0  0  0
 16 17  1  0  0  0  0
 16 32  1  0  0  0  0
 17 18  1  0  0  0  0
 17 33  1  0  0  0  0
 17 34  1  0  0  0  0
 18 19  1  0  0  0  0
 18 35  1  0  0  0  0
 18 36  1  0  0  0  0
 19 37  1  0  0  0  0
 19 38  1  0  0  0  0
 20 21  1  0  0  0  0
 20 39  1  0  0  0  0
 20 40  1  0  0  0  0
 21 41  1  0  0  0  0
 21 42  1  0  0  0  0
 21 43  1  0  0  0  0
 22 23  1  0  0  0  0
 22 44  1  0  0  0  0
 22 45  1  0  0  0  0
 23 46  1  0  0  0  0
 23 47  1  0  0  0  0
 23 48  1  0  0  0  0
M  END
> <ConfScore>
-0.392924 

$$$$
3PBL_ETQ_A_1200
  RCSB PDB10041311333D
Coordinates from PDB:3PBL:A:1200 Model:1 without hydrogens
 48 49  0  0  0  0  0  0  0  0999 V2000
   -0.8080  -12.3360   10.5520 C   0  0  0  1  0  3  0  0  0  0  0  0
    0.8875  -15.5765   11.1949 N   0  0  0  1  0  3  0  0  0  0  0  0
   -1.5290  -12.2300   11.6990 O   0  0  0  1  0  2  0  0  0  0  0  0
    1.6090  -12.6560    6.7620 Cl  0  0  0  1  0  1  0  0  0  0  0  0
   -0.8770  -11.3050    9.6070 C   0  0  0  1  0  3  0  0  0  0  0  0
    0.6516  -15.4775   14.2384 N   0  0  0  1  0  3  0  0  0  0  0  0
    1.5050  -14.6500    8.8870 O   0  0  0  1  0  2  0  0  0  0  0  0
   -0.1100  -11.4090    8.4450 C   0  0  0  1  0  3  0  0  0  0  0  0
   -0.6265  -14.4643   12.4478 O   0  0  0  1  0  1  0  0  0  0  0  0
    0.6880  -12.5280    8.2200 C   0  0  0  1  0  3  0  0  0  0  0  0
    0.7350  -13.5620    9.1540 C   0  0  0  1  0  3  0  0  0  0  0  0
    0.7760  -15.5290    8.0190 C   0  0  0  1  0  4  0  0  0  0  0  0
   -0.0250  -13.4780   10.3280 C   0  0  0  1  0  3  0  0  0  0  0  0
    0.0360  -14.5730   11.4180 C   0  0  0  1  0  3  0  0  0  0  0  0
    1.0942  -16.6944   12.1370 C   0  0  0  1  0  4  0  0  0  0  0  0
    1.6805  -16.2027   13.4653 C   0  0  0  1  0  4  0  0  0  0  0  0
    2.0930  -17.4025   14.3148 C   0  0  0  1  0  4  0  0  0  0  0  0
    0.8363  -17.6880   15.1204 C   0  0  0  1  0  4  0  0  0  0  0  0
    0.3398  -16.2849   15.4348 C   0  0  0  1  0  4  0  0  0  0  0  0
    1.1955  -14.1743   14.6434 C   0  0  0  1  0  4  0  0  0  0  0  0
    0.0661  -13.1848   14.8901 C   0  0  0  1  0  4  0  0  0  0  0  0
   -1.6890  -10.0110    9.7860 C   0  0  0  1  0  4  0  0  0  0  0  0
   -1.2246   -9.1814   10.9852 C   0  0  0  1  0  4  0  0  0  0  0  0
    1.4502  -15.5705   10.2848 H   0  0  0  1  0  1  0  0  0  0  0  0
   -0.8760  -12.1546   12.5178 H   0  0  0  1  0  1  0  0  0  0  0  0
   -0.1360  -10.6071    7.7072 H   0  0  0  1  0  1  0  0  0  0  0  0
    1.4746  -16.1638    7.4738 H   0  0  0  1  0  1  0  0  0  0  0  0
    0.1931  -14.9394    7.3114 H   0  0  0  1  0  1  0  0  0  0  0  0
    0.1064  -16.1518    8.6121 H   0  0  0  1  0  1  0  0  0  0  0  0
    1.7814  -17.4128   11.6900 H   0  0  0  1  0  1  0  0  0  0  0  0
    0.1365  -17.1781   12.3293 H   0  0  0  1  0  1  0  0  0  0  0  0
    2.5294  -15.5566   13.2414 H   0  0  0  1  0  1  0  0  0  0  0  0
    2.9298  -17.1531   14.9672 H   0  0  0  1  0  1  0  0  0  0  0  0
    2.3606  -18.2539   13.6890 H   0  0  0  1  0  1  0  0  0  0  0  0
    1.0665  -18.2403   16.0315 H   0  0  0  1  0  1  0  0  0  0  0  0
    0.1063  -18.2442   14.5323 H   0  0  0  1  0  1  0  0  0  0  0  0
   -0.7345  -16.2937   15.6187 H   0  0  0  1  0  1  0  0  0  0  0  0
    0.8553  -15.8856   16.3083 H   0  0  0  1  0  1  0  0  0  0  0  0
    1.8414  -13.7928   13.8526 H   0  0  0  1  0  1  0  0  0  0  0  0
    1.7741  -14.2950   15.5593 H   0  0  0  1  0  1  0  0  0  0  0  0
    0.1793  -12.7427   15.8800 H   0  0  0  1  0  1  0  0  0  0  0  0
   -0.8906  -13.7039   14.8316 H   0  0  0  1  0  1  0  0  0  0  0  0
    0.1004  -12.3991   14.1354 H   0  0  0  1  0  1  0  0  0  0  0  0
   -2.7369  -10.2745    9.9296 H   0  0  0  1  0  1  0  0  0  0  0  0
   -1.5859   -9.4076    8.8842 H   0  0  0  1  0  1  0  0  0  0  0  0
   -0.2687   -9.5634   11.3436 H   0  0  0  1  0  1  0  0  0  0  0  0
   -1.9648   -9.2497   11.7824 H   0  0  0  1  0  1  0  0  0  0  0  0
   -1.1096   -8.1403   10.6837 H   0  0  0  1  0  1  0  0  0  0  0  0
  1  3  1  0  0  0  0
  1  5  2  0  0  0  0
  1 13  1  0  0  0  0
  2 14  1  0  0  0  0
  2 15  1  0  0  0  0
  2 24  1  0  0  0  0
  3 25  1  0  0  0  0
  4 10  1  0  0  0  0
  5  8  1  0  0  0  0
  5 22  1  0  0  0  0
  6 16  1  0  0  0  0
  6 19  1  0  0  0  0
  6 20  1  0  0  0  0
  7 11  1  0  0  0  0
  7 12  1  0  0  0  0
  8 10  2  0  0  0  0
  8 26  1  0  0  0  0
  9 14  2  0  0  0  0
 10 11  1  0  0  0  0
 11 13  2  0  0  0  0
 12 27  1  0  0  0  0
 12 28  1  0  0  0  0
 12 29  1  0  0  0  0
 13 14  1  0  0  0  0
 15 16  1  0  0  0  0
 15 30  1  0  0  0  0
 15 31  1  0  0  0  0
 16 17  1  0  0  0  0
 16 32  1  0  0  0  0
 17 18  1  0  0  0  0
 17 33  1  0  0  0  0
 17 34  1  0  0  0  0
 18 19  1  0  0  0  0
 18 35  1  0  0  0  0
 18 36  1  0  0  0  0
 19 37  1  0  0  0  0
 19 38  1  0  0  0  0
 20 21  1  0  0  0  0
 20 39  1  0  0  0  0
 20 40  1  0  0  0  0
 21 41  1  0  0  0  0
 21 42  1  0  0  0  0
 21 43  1  0  0  0  0
 22 23  1  0  0  0  0
 22 44  1  0  0  0  0
 22 45  1  0  0  0  0
 23 46  1  0  0  0  0
 23 47  1  0  0  0  0
 23 48  1  0  0  0  0
M  END
> <ConfScore>
-0.458292 

$$$$
3PBL_ETQ_A_1200
  RCSB PDB10041311333D
Coordinates from PDB:3PBL:A:1200 Model:1 without hydrogens
 48 49  0  0  0  0  0  0  0  0999 V2000
   -0.8080  -12.3360   10.5520 C   0  0  0  1  0  3  0  0  0  0  0  0
   -0.7448  -14.3841   12.4841 N   0  0  0  1  0  3  0  0  0  0  0  0
   -1.5290  -12.2300   11.6990 O   0  0  0  1  0  2  0  0  0  0  0  0
    1.6090  -12.6560    6.7620 Cl  0  0  0  1  0  1  0  0  0  0  0  0
   -0.8770  -11.3050    9.6070 C   0  0  0  1  0  3  0  0  0  0  0  0
   -0.4078  -17.4168   12.3495 N   0  0  0  1  0  3  0  0  0  0  0  0
    1.5050  -14.6500    8.8870 O   0  0  0  1  0  2  0  0  0  0  0  0
   -0.1100  -11.4090    8.4450 C   0  0  0  1  0  3  0  0  0  0  0  0
    0.7250  -15.5777   11.2536 O   0  0  0  1  0  1  0  0  0  0  0  0
    0.6880  -12.5280    8.2200 C   0  0  0  1  0  3  0  0  0  0  0  0
    0.7350  -13.5620    9.1540 C   0  0  0  1  0  3  0  0  0  0  0  0
    0.7760  -15.5290    8.0190 C   0  0  0  1  0  4  0  0  0  0  0  0
   -0.0250  -13.4780   10.3280 C   0  0  0  1  0  3  0  0  0  0  0  0
    0.0360  -14.5730   11.4180 C   0  0  0  1  0  3  0  0  0  0  0  0
   -0.8326  -15.3368   13.6087 C   0  0  0  1  0  4  0  0  0  0  0  0
   -1.4062  -16.6838   13.1547 C   0  0  0  1  0  4  0  0  0  0  0  0
   -1.6962  -17.5517   14.3770 C   0  0  0  1  0  4  0  0  0  0  0  0
   -0.3934  -18.3120   14.5623 C   0  0  0  1  0  4  0  0  0  0  0  0
    0.0068  -18.6037   13.1241 C   0  0  0  1  0  4  0  0  0  0  0  0
   -1.0335  -17.8371   11.0885 C   0  0  0  1  0  4  0  0  0  0  0  0
    0.0262  -18.0394   10.0154 C   0  0  0  1  0  4  0  0  0  0  0  0
   -1.6890  -10.0110    9.7860 C   0  0  0  1  0  4  0  0  0  0  0  0
   -1.2246   -9.1814   10.9852 C   0  0  0  1  0  4  0  0  0  0  0  0
   -1.3388  -13.4951   12.5258 H   0  0  0  1  0  1  0  0  0  0  0  0
   -0.8760  -12.1546   12.5178 H   0  0  0  1  0  1  0  0  0  0  0  0
   -0.1360  -10.6071    7.7072 H   0  0  0  1  0  1  0  0  0  0  0  0
    1.4746  -16.1638    7.4738 H   0  0  0  1  0  1  0  0  0  0  0  0
    0.1931  -14.9394    7.3114 H   0  0  0  1  0  1  0  0  0  0  0  0
    0.1064  -16.1518    8.6121 H   0  0  0  1  0  1  0  0  0  0  0  0
   -1.4793  -14.9173   14.3794 H   0  0  0  1  0  1  0  0  0  0  0  0
    0.1651  -15.4957   14.0178 H   0  0  0  1  0  1  0  0  0  0  0  0
   -2.3089  -16.4889   12.5756 H   0  0  0  1  0  1  0  0  0  0  0  0
   -2.5255  -18.2331   14.1875 H   0  0  0  1  0  1  0  0  0  0  0  0
   -1.9211  -16.9387   15.2498 H   0  0  0  1  0  1  0  0  0  0  0  0
   -0.5484  -19.2326   15.1251 H   0  0  0  1  0  1  0  0  0  0  0  0
    0.3548  -17.6996   15.0655 H   0  0  0  1  0  1  0  0  0  0  0  0
    1.0846  -18.7485   13.0508 H   0  0  0  1  0  1  0  0  0  0  0  0
   -0.5055  -19.4940   12.7595 H   0  0  0  1  0  1  0  0  0  0  0  0
   -1.7344  -17.0690   10.7614 H   0  0  0  1  0  1  0  0  0  0  0  0
   -1.5680  -18.7737   11.2471 H   0  0  0  1  0  1  0  0  0  0  0  0
    0.9806  -18.2748   10.4864 H   0  0  0  1  0  1  0  0  0  0  0  0
    0.1266  -17.1270    9.4277 H   0  0  0  1  0  1  0  0  0  0  0  0
   -0.2695  -18.8614    9.3636 H   0  0  0  1  0  1  0  0  0  0  0  0
   -2.7369  -10.2745    9.9296 H   0  0  0  1  0  1  0  0  0  0  0  0
   -1.5859   -9.4076    8.8842 H   0  0  0  1  0  1  0  0  0  0  0  0
   -0.2687   -9.5634   11.3436 H   0  0  0  1  0  1  0  0  0  0  0  0
   -1.9648   -9.2497   11.7824 H   0  0  0  1  0  1  0  0  0  0  0  0
   -1.1096   -8.1403   10.6837 H   0  0  0  1  0  1  0  0  0  0  0  0
  1  3  1  0  0  0  0
  1  5  2  0  0  0  0
  1 13  1  0  0  0  0
  2 14  1  0  0  0  0
  2 15  1  0  0  0  0
  2 24  1  0  0  0  0
  3 25  1  0  0  0  0
  4 10  1  0  0  0  0
  5  8  1  0  0  0  0
  5 22  1  0  0  0  0
  6 16  1  0  0  0  0
  6 19  1  0  0  0  0
  6 20  1  0  0  0  0
  7 11  1  0  0  0  0
  7 12  1  0  0  0  0
  8 10  2  0  0  0  0
  8 26  1  0  0  0  0
  9 14  2  0  0  0  0
 10 11  1  0  0  0  0
 11 13  2  0  0  0  0
 12 27  1  0  0  0  0
 12 28  1  0  0  0  0
 12 29  1  0  0  0  0
 13 14  1  0  0  0  0
 15 16  1  0  0  0  0
 15 30  1  0  0  0  0
 15 31  1  0  0  0  0
 16 17  1  0  0  0  0
 16 32  1  0  0  0  0
 17 18  1  0  0  0  0
 17 33  1  0  0  0  0
 17 34  1  0  0  0  0
 18 19  1  0  0  0  0
 18 35  1  0  0  0  0
 18 36  1  0  0  0  0
 19 37  1  0  0  0  0
 19 38  1  0  0  0  0
 20 21  1  0  0  0  0
 20 39  1  0  0  0  0
 20 40  1  0  0  0  0
 21 41  1  0  0  0  0
 21 42  1  0  0  0  0
 21 43  1  0  0  0  0
 22 23  1  0  0  0  0
 22 44  1  0  0  0  0
 22 45  1  0  0  0  0
 23 46  1  0  0  0  0
 23 47  1  0  0  0  0
 23 48  1  0  0  0  0
M  END
> <ConfScore>
-0.353204 

$$$$
3PBL_ETQ_A_1200
  RCSB PDB10041311333D
Coordinates from PDB:3PBL:A:1200 Model:1 without hydrogens
 48 49  0  0  0  0  0  0  0  0999 V2000
   -0.8080  -12.3360   10.5520 C   0  0  0  1  0  3  0  0  0  0  0  0
    0.8670  -15.5906   11.1819 N   0  0  0  1  0  3  0  0  0  0  0  0
   -1.5290  -12.2300   11.6990 O   0  0  0  1  0  2  0  0  0  0  0  0
    1.6090  -12.6560    6.7620 Cl  0  0  0  1  0  1  0  0  0  0  0  0
   -0.8770  -11.3050    9.6070 C   0  0  0  1  0  3  0  0  0  0  0  0
    0.6832  -15.4853   14.2288 N   0  0  0  1  0  3  0  0  0  0  0  0
    1.5050  -14.6500    8.8870 O   0  0  0  1  0  2  0  0  0  0  0  0
   -0.1100  -11.4090    8.4450 C   0  0  0  1  0  3  0  0  0  0  0  0
   -0.6074  -14.4526   12.4585 O   0  0  0  1  0  1  0  0  0  0  0  0
    0.6880  -12.5280    8.2200 C   0  0  0  1  0  3  0  0  0  0  0  0
    0.7350  -13.5620    9.1540 C   0  0  0  1  0  3  0  0  0  0  0  0
    2.1512  -14.4580    7.6209 C   0  0  0  1  0  4  0  0  0  0  0  0
   -0.0250  -13.4780   10.3280 C   0  0  0  1  0  3  0  0  0  0  0  0
    0.0360  -14.5730   11.4180 C   0  0  0  1  0  3  0  0  0  0  0  0
    1.0708  -16.7110   12.1216 C   0  0  0  1  0  4  0  0  0  0  0  0
    1.6871  -16.2280   13.4395 C   0  0  0  1  0  4  0  0  0  0  0  0
    2.0938  -17.4337   14.2834 C   0  0  0  1  0  4  0  0  0  0  0  0
    0.8461  -17.6978   15.1100 C   0  0  0  1  0  4  0  0  0  0  0  0
    0.3781  -16.2865   15.4311 C   0  0  0  1  0  4  0  0  0  0  0  0
    1.2552  -14.1909   14.6234 C   0  0  0  1  0  4  0  0  0  0  0  0
    0.1464  -13.1828   14.8876 C   0  0  0  1  0  4  0  0  0  0  0  0
   -1.6890  -10.0110    9.7860 C   0  0  0  1  0  4  0  0  0  0  0  0
   -1.2246   -9.1814   10.9852 C   0  0  0  1  0  4  0  0  0  0  0  0
    1.4146  -15.5946   10.2626 H   0  0  0  1  0  1  0  0  0  0  0  0
   -0.8760  -12.1546   12.5178 H   0  0  0  1  0  1  0  0  0  0  0  0
   -0.1360  -10.6071    7.7072 H   0  0  0  1  0  1  0  0  0  0  0  0
    3.1987  -14.7490    7.6992 H   0  0  0  1  0  1  0  0  0  0  0  0
    2.0865  -13.4080    7.3357 H   0  0  0  1  0  1  0  0  0  0  0  0
    1.6596  -15.0711    6.8656 H   0  0  0  1  0  1  0  0  0  0  0  0
    1.7386  -17.4409   11.6641 H   0  0  0  1  0  1  0  0  0  0  0  0
    0.1086  -17.1787   12.3303 H   0  0  0  1  0  1  0  0  0  0  0  0
    2.5427  -15.5962   13.2009 H   0  0  0  1  0  1  0  0  0  0  0  0
    2.9453  -17.1977   14.9215 H   0  0  0  1  0  1  0  0  0  0  0  0
    2.3369  -18.2899   13.6541 H   0  0  0  1  0  1  0  0  0  0  0  0
    1.0822  -18.2532   16.0176 H   0  0  0  1  0  1  0  0  0  0  0  0
    0.0974  -18.2424   14.5346 H   0  0  0  1  0  1  0  0  0  0  0  0
   -0.6930  -16.2774   15.6327 H   0  0  0  1  0  1  0  0  0  0  0  0
    0.9144  -15.8951   16.2955 H   0  0  0  1  0  1  0  0  0  0  0  0
    1.8941  -13.8207   13.8216 H   0  0  0  1  0  1  0  0  0  0  0  0
    1.8468  -14.3205   15.5296 H   0  0  0  1  0  1  0  0  0  0  0  0
    0.2823  -12.7432   15.8758 H   0  0  0  1  0  1  0  0  0  0  0  0
   -0.8196  -13.6857   14.8437 H   0  0  0  1  0  1  0  0  0  0  0  0
    0.1824  -12.3973   14.1327 H   0  0  0  1  0  1  0  0  0  0  0  0
   -2.7369  -10.2745    9.9296 H   0  0  0  1  0  1  0  0  0  0  0  0
   -1.5859   -9.4076    8.8842 H   0  0  0  1  0  1  0  0  0  0  0  0
   -0.2687   -9.5634   11.3436 H   0  0  0  1  0  1  0  0  0  0  0  0
   -1.9648   -9.2497   11.7824 H   0  0  0  1  0  1  0  0  0  0  0  0
   -1.1096   -8.1403   10.6837 H   0  0  0  1  0  1  0  0  0  0  0  0
  1  3  1  0  0  0  0
  1  5  2  0  0  0  0
  1 13  1  0  0  0  0
  2 14  1  0  0  0  0
  2 15  1  0  0  0  0
  2 24  1  0  0  0  0
  3 25  1  0  0  0  0
  4 10  1  0  0  0  0
  5  8  1  0  0  0  0
  5 22  1  0  0  0  0
  6 16  1  0  0  0  0
  6 19  1  0  0  0  0
  6 20  1  0  0  0  0
  7 11  1  0  0  0  0
  7 12  1  0  0  0  0
  8 10  2  0  0  0  0
  8 26  1  0  0  0  0
  9 14  2  0  0  0  0
 10 11  1  0  0  0  0
 11 13  2  0  0  0  0
 12 27  1  0  0  0  0
 12 28  1  0  0  0  0
 12 29  1  0  0  0  0
 13 14  1  0  0  0  0
 15 16  1  0  0  0  0
 15 30  1  0  0  0  0
 15 31  1  0  0  0  0
 16 17  1  0  0  0  0
 16 32  1  0  0  0  0
 17 18  1  0  0  0  0
 17 33  1  0  0  0  0
 17 34  1  0  0  0  0
 18 19  1  0  0  0  0
 18 35  1  0  0  0  0
 18 36  1  0  0  0  0
 19 37  1  0  0  0  0
 19 38  1  0  0  0  0
 20 21  1  0  0  0  0
 20 39  1  0  0  0  0
 20 40  1  0  0  0  0
 21 41  1  0  0  0  0
 21 42  1  0  0  0  0
 21 43  1  0  0  0  0
 22 23  1  0  0  0  0
 22 44  1  0  0  0  0
 22 45  1  0  0  0  0
 23 46  1  0  0  0  0
 23 47  1  0  0  0  0
 23 48  1  0  0  0  0
M  END
> <ConfScore>
-0.718321 

$$$$
3PBL_ETQ_A_1200
  RCSB PDB10041311333D
Coordinates from PDB:3PBL:A:1200 Model:1 without hydrogens
 48 49  0  0  0  0  0  0  0  0999 V2000
   -0.8080  -12.3360   10.5520 C   0  0  0  1  0  3  0  0  0  0  0  0
    0.4991  -14.1896   12.6098 N   0  0  0  1  0  3  0  0  0  0  0  0
   -1.5290  -12.2300   11.6990 O   0  0  0  1  0  2  0  0  0  0  0  0
    1.6090  -12.6560    6.7620 Cl  0  0  0  1  0  1  0  0  0  0  0  0
   -0.8770  -11.3050    9.6070 C   0  0  0  1  0  3  0  0  0  0  0  0
   -1.5183  -16.3930   13.2455 N   0  0  0  1  0  3  0  0  0  0  0  0
    1.5050  -14.6500    8.8870 O   0  0  0  1  0  2  0  0  0  0  0  0
   -0.1100  -11.4090    8.4450 C   0  0  0  1  0  3  0  0  0  0  0  0
   -0.3843  -15.7050   11.1878 O   0  0  0  1  0  1  0  0  0  0  0  0
    0.6880  -12.5280    8.2200 C   0  0  0  1  0  3  0  0  0  0  0  0
    0.7350  -13.5620    9.1540 C   0  0  0  1  0  3  0  0  0  0  0  0
    2.1512  -14.4580    7.6209 C   0  0  0  1  0  4  0  0  0  0  0  0
   -0.0250  -13.4780   10.3280 C   0  0  0  1  0  3  0  0  0  0  0  0
    0.0360  -14.5730   11.4180 C   0  0  0  1  0  3  0  0  0  0  0  0
    0.4754  -15.0512   13.8087 C   0  0  0  1  0  4  0  0  0  0  0  0
   -0.9597  -15.4172   14.2037 C   0  0  0  1  0  4  0  0  0  0  0  0
   -0.9526  -16.1061   15.5664 C   0  0  0  1  0  4  0  0  0  0  0  0
   -0.8144  -17.5737   15.1970 C   0  0  0  1  0  4  0  0  0  0  0  0
   -1.6981  -17.6711   13.9628 C   0  0  0  1  0  4  0  0  0  0  0  0
   -2.8183  -15.8993   12.7715 C   0  0  0  1  0  4  0  0  0  0  0  0
   -3.1459  -16.4978   11.4114 C   0  0  0  1  0  4  0  0  0  0  0  0
   -1.6890  -10.0110    9.7860 C   0  0  0  1  0  4  0  0  0  0  0  0
   -1.2246   -9.1814   10.9852 C   0  0  0  1  0  4  0  0  0  0  0  0
    0.9093  -13.2056   12.7013 H   0  0  0  1  0  1  0  0  0  0  0  0
   -0.8760  -12.1546   12.5178 H   0  0  0  1  0  1  0  0  0  0  0  0
   -0.1360  -10.6071    7.7072 H   0  0  0  1  0  1  0  0  0  0  0  0
    3.1987  -14.7490    7.6992 H   0  0  0  1  0  1  0  0  0  0  0  0
    2.0865  -13.4080    7.3357 H   0  0  0  1  0  1  0  0  0  0  0  0
    1.6596  -15.0711    6.8656 H   0  0  0  1  0  1  0  0  0  0  0  0
    0.9470  -14.5210   14.6361 H   0  0  0  1  0  1  0  0  0  0  0  0
    1.0301  -15.9659   13.5993 H   0  0  0  1  0  1  0  0  0  0  0  0
   -1.5503  -14.5012   14.2184 H   0  0  0  1  0  1  0  0  0  0  0  0
   -1.8825  -15.9221   16.1047 H   0  0  0  1  0  1  0  0  0  0  0  0
   -0.1098  -15.7719   16.1714 H   0  0  0  1  0  1  0  0  0  0  0  0
   -1.1775  -18.2196   15.9965 H   0  0  0  1  0  1  0  0  0  0  0  0
    0.2198  -17.8283   14.9651 H   0  0  0  1  0  1  0  0  0  0  0  0
   -1.3859  -18.5065   13.3361 H   0  0  0  1  0  1  0  0  0  0  0  0
   -2.7411  -17.8024   14.2509 H   0  0  0  1  0  1  0  0  0  0  0  0
   -2.7812  -14.8132   12.6869 H   0  0  0  1  0  1  0  0  0  0  0  0
   -3.5923  -16.1825   13.4848 H   0  0  0  1  0  1  0  0  0  0  0  0
   -2.4040  -17.2555   11.1590 H   0  0  0  1  0  1  0  0  0  0  0  0
   -3.1335  -15.7118   10.6563 H   0  0  0  1  0  1  0  0  0  0  0  0
   -4.1349  -16.9549   11.4446 H   0  0  0  1  0  1  0  0  0  0  0  0
   -2.7369  -10.2745    9.9296 H   0  0  0  1  0  1  0  0  0  0  0  0
   -1.5859   -9.4076    8.8842 H   0  0  0  1  0  1  0  0  0  0  0  0
   -0.2687   -9.5634   11.3436 H   0  0  0  1  0  1  0  0  0  0  0  0
   -1.9648   -9.2497   11.7824 H   0  0  0  1  0  1  0  0  0  0  0  0
   -1.1096   -8.1403   10.6837 H   0  0  0  1  0  1  0  0  0  0  0  0
  1  3  1  0  0  0  0
  1  5  2  0  0  0  0
  1 13  1  0  0  0  0
  2 14  1  0  0  0  0
  2 15  1  0  0  0  0
  2 24  1  0  0  0  0
  3 25  1  0  0  0  0
  4 10  1  0  0  0  0
  5  8  1  0  0  0  0
  5 22  1  0  0  0  0
  6 16  1  0  0  0  0
  6 19  1  0  0  0  0
  6 20  1  0  0  0  0
  7 11  1  0  0  0  0
  7 12  1  0  0  0  0
  8 10  2  0  0  0  0
  8 26  1  0  0  0  0
  9 14  2  0  0  0  0
 10 11  1  0  0  0  0
 11 13  2  0  0  0  0
 12 27  1  0  0  0  0
 12 28  1  0  0  0  0
 12 29  1  0  0  0  0
 13 14  1  0  0  0  0
 15 16  1  0  0  0  0
 15 30  1  0  0  0  0
 15 31  1  0  0  0  0
 16 17  1  0  0  0  0
 16 32  1  0  0  0  0
 17 18  1  0  0  0  0
 17 33  1  0  0  0  0
 17 34  1  0  0  0  0
 18 19  1  0  0  0  0
 18 35  1  0  0  0  0
 18 36  1  0  0  0  0
 19 37  1  0  0  0  0
 19 38  1  0  0  0  0
 20 21  1  0  0  0  0
 20 39  1  0  0  0  0
 20 40  1  0  0  0  0
 21 41  1  0  0  0  0
 21 42  1  0  0  0  0
 21 43  1  0  0  0  0
 22 23  1  0  0  0  0
 22 44  1  0  0  0  0
 22 45  1  0  0  0  0
 23 46  1  0  0  0  0
 23 47  1  0  0  0  0
 23 48  1  0  0  0  0
M  END
> <ConfScore>
-0.314432 

$$$$
3PBL_ETQ_A_1200
  RCSB PDB10041311333D
Coordinates from PDB:3PBL:A:1200 Model:1 without hydrogens
 48 49  0  0  0  0  0  0  0  0999 V2000
   -0.8080  -12.3360   10.5520 C   0  0  0  1  0  3  0  0  0  0  0  0
    1.2249  -14.7613   11.9949 N   0  0  0  1  0  3  0  0  0  0  0  0
   -1.5290  -12.2300   11.6990 O   0  0  0  1  0  2  0  0  0  0  0  0
    1.6090  -12.6560    6.7620 Cl  0  0  0  1  0  1  0  0  0  0  0  0
   -0.8770  -11.3050    9.6070 C   0  0  0  1  0  3  0  0  0  0  0  0
   -0.7925  -15.7784   14.0502 N   0  0  0  1  0  3  0  0  0  0  0  0
    1.5050  -14.6500    8.8870 O   0  0  0  1  0  2  0  0  0  0  0  0
   -0.1100  -11.4090    8.4450 C   0  0  0  1  0  3  0  0  0  0  0  0
   -0.9823  -15.1733   11.7555 O   0  0  0  1  0  1  0  0  0  0  0  0
    0.6880  -12.5280    8.2200 C   0  0  0  1  0  3  0  0  0  0  0  0
    0.7350  -13.5620    9.1540 C   0  0  0  1  0  3  0  0  0  0  0  0
    2.1512  -14.4580    7.6209 C   0  0  0  1  0  4  0  0  0  0  0  0
   -0.0250  -13.4780   10.3280 C   0  0  0  1  0  3  0  0  0  0  0  0
    0.0360  -14.5730   11.4180 C   0  0  0  1  0  3  0  0  0  0  0  0
    1.4667  -15.7590   13.0561 C   0  0  0  1  0  4  0  0  0  0  0  0
    0.6277  -15.4602   14.3037 C   0  0  0  1  0  4  0  0  0  0  0  0
    1.0756  -16.3670   15.4476 C   0  0  0  1  0  4  0  0  0  0  0  0
    0.1728  -17.5787   15.2853 C   0  0  0  1  0  4  0  0  0  0  0  0
   -1.1493  -16.9349   14.8962 C   0  0  0  1  0  4  0  0  0  0  0  0
   -1.6111  -14.6165   14.4218 C   0  0  0  1  0  4  0  0  0  0  0  0
   -2.9291  -14.6348   13.6616 C   0  0  0  1  0  4  0  0  0  0  0  0
   -1.6890  -10.0110    9.7860 C   0  0  0  1  0  4  0  0  0  0  0  0
   -1.2246   -9.1814   10.9852 C   0  0  0  1  0  4  0  0  0  0  0  0
    2.0465  -14.1570   11.6711 H   0  0  0  1  0  1  0  0  0  0  0  0
   -0.8760  -12.1546   12.5178 H   0  0  0  1  0  1  0  0  0  0  0  0
   -0.1360  -10.6071    7.7072 H   0  0  0  1  0  1  0  0  0  0  0  0
    3.1987  -14.7490    7.6992 H   0  0  0  1  0  1  0  0  0  0  0  0
    2.0865  -13.4080    7.3357 H   0  0  0  1  0  1  0  0  0  0  0  0
    1.6596  -15.0711    6.8656 H   0  0  0  1  0  1  0  0  0  0  0  0
    2.5226  -15.7412   13.3260 H   0  0  0  1  0  1  0  0  0  0  0  0
    1.2038  -16.7478   12.6801 H   0  0  0  1  0  1  0  0  0  0  0  0
    0.7542  -14.4064   14.5517 H   0  0  0  1  0  1  0  0  0  0  0  0
    0.9195  -15.8871   16.4138 H   0  0  0  1  0  1  0  0  0  0  0  0
    2.1252  -16.6419   15.3433 H   0  0  0  1  0  1  0  0  0  0  0  0
    0.0836  -18.1343   16.2187 H   0  0  0  1  0  1  0  0  0  0  0  0
    0.5368  -18.2418   14.5005 H   0  0  0  1  0  1  0  0  0  0  0  0
   -1.7658  -17.6392   14.3377 H   0  0  0  1  0  1  0  0  0  0  0  0
   -1.6879  -16.6048   15.7846 H   0  0  0  1  0  1  0  0  0  0  0  0
   -1.0690  -13.7024   14.1795 H   0  0  0  1  0  1  0  0  0  0  0  0
   -1.8132  -14.6467   15.4925 H   0  0  0  1  0  1  0  0  0  0  0  0
   -3.7417  -14.3634   14.3355 H   0  0  0  1  0  1  0  0  0  0  0  0
   -3.1053  -15.6345   13.2645 H   0  0  0  1  0  1  0  0  0  0  0  0
   -2.8844  -13.9197   12.8402 H   0  0  0  1  0  1  0  0  0  0  0  0
   -2.7369  -10.2745    9.9296 H   0  0  0  1  0  1  0  0  0  0  0  0
   -1.5859   -9.4076    8.8842 H   0  0  0  1  0  1  0  0  0  0  0  0
   -0.2687   -9.5634   11.3436 H   0  0  0  1  0  1  0  0  0  0  0  0
   -1.9648   -9.2497   11.7824 H   0  0  0  1  0  1  0  0  0  0  0  0
   -1.1096   -8.1403   10.6837 H   0  0  0  1  0  1  0  0  0  0  0  0
  1  3  1  0  0  0  0
  1  5  2  0  0  0  0
  1 13  1  0  0  0  0
  2 14  1  0  0  0  0
  2 15  1  0  0  0  0
  2 24  1  0  0  0  0
  3 25  1  0  0  0  0
  4 10  1  0  0  0  0
  5  8  1  0  0  0  0
  5 22  1  0  0  0  0
  6 16  1  0  0  0  0
  6 19  1  0  0  0  0
  6 20  1  0  0  0  0
  7 11  1  0  0  0  0
  7 12  1  0  0  0  0
  8 10  2  0  0  0  0
  8 26  1  0  0  0  0
  9 14  2  0  0  0  0
 10 11  1  0  0  0  0
 11 13  2  0  0  0  0
 12 27  1  0  0  0  0
 12 28  1  0  0  0  0
 12 29  1  0  0  0  0
 13 14  1  0  0  0  0
 15 16  1  0  0  0  0
 15 30  1  0  0  0  0
 15 31  1  0  0  0  0
 16 17  1  0  0  0  0
 16 32  1  0  0  0  0
 17 18  1  0  0  0  0
 17 33  1  0  0  0  0
 17 34  1  0  0  0  0
 18 19  1  0  0  0  0
 18 35  1  0  0  0  0
 18 36  1  0  0  0  0
 19 37  1  0  0  0  0
 19 38  1  0  0  0  0
 20 21  1  0  0  0  0
 20 39  1  0  0  0  0
 20 40  1  0  0  0  0
 21 41  1  0  0  0  0
 21 42  1  0  0  0  0
 21 43  1  0  0  0  0
 22 23  1  0  0  0  0
 22 44  1  0  0  0  0
 22 45  1  0  0  0  0
 23 46  1  0  0  0  0
 23 47  1  0  0  0  0
 23 48  1  0  0  0  0
M  END
> <ConfScore>
-0.32459 

$$$$
3PBL_ETQ_A_1200
  RCSB PDB10041311333D
Coordinates from PDB:3PBL:A:1200 Model:1 without hydrogens
 48 49  0  0  0  0  0  0  0  0999 V2000
   -0.8080  -12.3360   10.5520 C   0  0  0  1  0  3  0  0  0  0  0  0
   -0.6662  -14.3358   12.5282 N   0  0  0  1  0  3  0  0  0  0  0  0
   -1.5290  -12.2300   11.6990 O   0  0  0  1  0  2  0  0  0  0  0  0
    1.6090  -12.6560    6.7620 Cl  0  0  0  1  0  1  0  0  0  0  0  0
   -0.8770  -11.3050    9.6070 C   0  0  0  1  0  3  0  0  0  0  0  0
   -0.5204  -17.3835   12.3893 N   0  0  0  1  0  3  0  0  0  0  0  0
    1.5050  -14.6500    8.8870 O   0  0  0  1  0  2  0  0  0  0  0  0
   -0.1100  -11.4090    8.4450 C   0  0  0  1  0  3  0  0  0  0  0  0
    0.6523  -15.6176   11.2176 O   0  0  0  1  0  1  0  0  0  0  0  0
    0.6880  -12.5280    8.2200 C   0  0  0  1  0  3  0  0  0  0  0  0
    0.7350  -13.5620    9.1540 C   0  0  0  1  0  3  0  0  0  0  0  0
    2.1512  -14.4580    7.6209 C   0  0  0  1  0  4  0  0  0  0  0  0
   -0.0250  -13.4780   10.3280 C   0  0  0  1  0  3  0  0  0  0  0  0
    0.0360  -14.5730   11.4180 C   0  0  0  1  0  3  0  0  0  0  0  0
   -0.7428  -15.2797   13.6610 C   0  0  0  1  0  4  0  0  0  0  0  0
   -1.4226  -16.5905   13.2493 C   0  0  0  1  0  4  0  0  0  0  0  0
   -1.6897  -17.4374   14.4914 C   0  0  0  1  0  4  0  0  0  0  0  0
   -0.4260  -18.2745   14.6018 C   0  0  0  1  0  4  0  0  0  0  0  0
   -0.1317  -18.5920   13.1436 C   0  0  0  1  0  4  0  0  0  0  0  0
   -1.2454  -17.7673   11.1705 C   0  0  0  1  0  4  0  0  0  0  0  0
   -0.2665  -18.0347   10.0366 C   0  0  0  1  0  4  0  0  0  0  0  0
   -1.6890  -10.0110    9.7860 C   0  0  0  1  0  4  0  0  0  0  0  0
   -1.2246   -9.1814   10.9852 C   0  0  0  1  0  4  0  0  0  0  0  0
   -1.2021  -13.4126   12.6010 H   0  0  0  1  0  1  0  0  0  0  0  0
   -0.8760  -12.1546   12.5178 H   0  0  0  1  0  1  0  0  0  0  0  0
   -0.1360  -10.6071    7.7072 H   0  0  0  1  0  1  0  0  0  0  0  0
    3.1987  -14.7490    7.6992 H   0  0  0  1  0  1  0  0  0  0  0  0
    2.0865  -13.4080    7.3357 H   0  0  0  1  0  1  0  0  0  0  0  0
    1.6596  -15.0711    6.8656 H   0  0  0  1  0  1  0  0  0  0  0  0
   -1.3154  -14.8209   14.4671 H   0  0  0  1  0  1  0  0  0  0  0  0
    0.2665  -15.4978   14.0101 H   0  0  0  1  0  1  0  0  0  0  0  0
   -2.3453  -16.3425   12.7248 H   0  0  0  1  0  1  0  0  0  0  0  0
   -2.5683  -18.0680   14.3557 H   0  0  0  1  0  1  0  0  0  0  0  0
   -1.8242  -16.8107   15.3730 H   0  0  0  1  0  1  0  0  0  0  0  0
   -0.6016  -19.1832   15.1776 H   0  0  0  1  0  1  0  0  0  0  0  0
    0.3866  -17.7074   15.0558 H   0  0  0  1  0  1  0  0  0  0  0  0
    0.9291  -18.8015   13.0063 H   0  0  0  1  0  1  0  0  0  0  0  0
   -0.7177  -19.4504   12.8152 H   0  0  0  1  0  1  0  0  0  0  0  0
   -1.9174  -16.9590   10.8822 H   0  0  0  1  0  1  0  0  0  0  0  0
   -1.8245  -18.6698   11.3658 H   0  0  0  1  0  1  0  0  0  0  0  0
    0.7028  -18.3123   10.4505 H   0  0  0  1  0  1  0  0  0  0  0  0
   -0.1584  -17.1352    9.4306 H   0  0  0  1  0  1  0  0  0  0  0  0
   -0.6429  -18.8482    9.4163 H   0  0  0  1  0  1  0  0  0  0  0  0
   -2.7369  -10.2745    9.9296 H   0  0  0  1  0  1  0  0  0  0  0  0
   -1.5859   -9.4076    8.8842 H   0  0  0  1  0  1  0  0  0  0  0  0
   -0.2687   -9.5634   11.3436 H   0  0  0  1  0  1  0  0  0  0  0  0
   -1.9648   -9.2497   11.7824 H   0  0  0  1  0  1  0  0  0  0  0  0
   -1.1096   -8.1403   10.6837 H   0  0  0  1  0  1  0  0  0  0  0  0
  1  3  1  0  0  0  0
  1  5  2  0  0  0  0
  1 13  1  0  0  0  0
  2 14  1  0  0  0  0
  2 15  1  0  0  0  0
  2 24  1  0  0  0  0
  3 25  1  0  0  0  0
  4 10  1  0  0  0  0
  5  8  1  0  0  0  0
  5 22  1  0  0  0  0
  6 16  1  0  0  0  0
  6 19  1  0  0  0  0
  6 20  1  0  0  0  0
  7 11  1  0  0  0  0
  7 12  1  0  0  0  0
  8 10  2  0  0  0  0
  8 26  1  0  0  0  0
  9 14  2  0  0  0  0
 10 11  1  0  0  0  0
 11 13  2  0  0  0  0
 12 27  1  0  0  0  0
 12 28  1  0  0  0  0
 12 29  1  0  0  0  0
 13 14  1  0  0  0  0
 15 16  1  0  0  0  0
 15 30  1  0  0  0  0
 15 31  1  0  0  0  0
 16 17  1  0  0  0  0
 16 32  1  0  0  0  0
 17 18  1  0  0  0  0
 17 33  1  0  0  0  0
 17 34  1  0  0  0  0
 18 19  1  0  0  0  0
 18 35  1  0  0  0  0
 18 36  1  0  0  0  0
 19 37  1  0  0  0  0
 19 38  1  0  0  0  0
 20 21  1  0  0  0  0
 20 39  1  0  0  0  0
 20 40  1  0  0  0  0
 21 41  1  0  0  0  0
 21 42  1  0  0  0  0
 21 43  1  0  0  0  0
 22 23  1  0  0  0  0
 22 44  1  0  0  0  0
 22 45  1  0  0  0  0
 23 46  1  0  0  0  0
 23 47  1  0  0  0  0
 23 48  1  0  0  0  0
M  END
> <ConfScore>
-0.493701 

$$$$
3PBL_ETQ_A_1200
  RCSB PDB10041311333D
Coordinates from PDB:3PBL:A:1200 Model:1 without hydrogens
 48 49  0  0  0  0  0  0  0  0999 V2000
    3.5852    8.0639    7.6143 C   0  0  0  1  0  3  0  0  0  0  0  0
    4.1015    8.6180    3.9782 N   0  0  0  1  0  3  0  0  0  0  0  0
    2.2748    7.7044    7.6018 O   0  0  0  1  0  2  0  0  0  0  0  0
    7.9418    9.2155    7.6650 Cl  0  0  0  1  0  1  0  0  0  0  0  0
    4.2732    8.0866    8.8338 C   0  0  0  1  0  3  0  0  0  0  0  0
    1.1896    9.4942    2.9157 N   0  0  0  1  0  3  0  0  0  0  0  0
    6.2341    9.1222    5.3034 O   0  0  0  1  0  2  0  0  0  0  0  0
    5.6268    8.4287    8.8330 C   0  0  0  1  0  3  0  0  0  0  0  0
    2.2382    8.0054    5.0970 O   0  0  0  1  0  1  0  0  0  0  0  0
    6.2724    8.7649    7.6456 C   0  0  0  1  0  3  0  0  0  0  0  0
    5.5765    8.7628    6.4376 C   0  0  0  1  0  3  0  0  0  0  0  0
    7.5960    9.4250    5.6363 C   0  0  0  1  0  4  0  0  0  0  0  0
    4.2180    8.4209    6.4145 C   0  0  0  1  0  3  0  0  0  0  0  0
    3.4178    8.3513    5.0933 C   0  0  0  1  0  3  0  0  0  0  0  0
    3.5063    8.5753    2.6277 C   0  0  0  1  0  4  0  0  0  0  0  0
    2.0197    8.3208    2.7390 C   0  0  0  1  0  4  0  0  0  0  0  0
    1.3832    7.5572    1.5509 C   0  0  0  1  0  4  0  0  0  0  0  0
   -0.1134    7.8307    1.6899 C   0  0  0  1  0  4  0  0  0  0  0  0
   -0.1862    9.0152    2.7686 C   0  0  0  1  0  4  0  0  0  0  0  0
    1.4968   10.5017    1.8915 C   0  0  0  1  0  4  0  0  0  0  0  0
    0.2880   11.3938    1.6499 C   0  0  0  1  0  4  0  0  0  0  0  0
    3.6620    7.6860   10.1872 C   0  0  0  1  0  4  0  0  0  0  0  0
    3.2007    6.2272   10.2204 C   0  0  0  1  0  4  0  0  0  0  0  0
    5.1359    8.8766    4.0680 H   0  0  0  1  0  1  0  0  0  0  0  0
    2.0069    7.3233    8.5428 H   0  0  0  1  0  1  0  0  0  0  0  0
    6.1833    8.4327    9.7702 H   0  0  0  1  0  1  0  0  0  0  0  0
    7.7671    9.2177    6.6927 H   0  0  0  1  0  1  0  0  0  0  0  0
    7.7932   10.4782    5.4364 H   0  0  0  1  0  1  0  0  0  0  0  0
    8.2629    8.8091    5.0329 H   0  0  0  1  0  1  0  0  0  0  0  0
    3.9697    7.7742    2.0519 H   0  0  0  1  0  1  0  0  0  0  0  0
    3.6750    9.5283    2.1263 H   0  0  0  1  0  1  0  0  0  0  0  0
    2.0211    7.7104    3.6421 H   0  0  0  1  0  1  0  0  0  0  0  0
    1.5894    6.4893    1.6226 H   0  0  0  1  0  1  0  0  0  0  0  0
    1.7591    7.9373    0.6010 H   0  0  0  1  0  1  0  0  0  0  0  0
   -0.6382    6.9455    2.0492 H   0  0  0  1  0  1  0  0  0  0  0  0
   -0.5407    8.1457    0.7379 H   0  0  0  1  0  1  0  0  0  0  0  0
   -0.8325    9.8168    2.4111 H   0  0  0  1  0  1  0  0  0  0  0  0
   -0.5631    8.6410    3.7204 H   0  0  0  1  0  1  0  0  0  0  0  0
    1.7645    9.9994    0.9620 H   0  0  0  1  0  1  0  0  0  0  0  0
    2.3335   11.1135    2.2286 H   0  0  0  1  0  1  0  0  0  0  0  0
   -0.1552   11.6729    2.6058 H   0  0  0  1  0  1  0  0  0  0  0  0
   -0.4473   10.8550    1.0523 H   0  0  0  1  0  1  0  0  0  0  0  0
    0.6006   12.2927    1.1184 H   0  0  0  1  0  1  0  0  0  0  0  0
    2.8032    8.3274   10.3851 H   0  0  0  1  0  1  0  0  0  0  0  0
    4.4119    7.8319   10.9648 H   0  0  0  1  0  1  0  0  0  0  0  0
    3.8982    5.6385   10.8163 H   0  0  0  1  0  1  0  0  0  0  0  0
    3.1688    5.8334    9.2045 H   0  0  0  1  0  1  0  0  0  0  0  0
    2.2067    6.1708   10.6639 H   0  0  0  1  0  1  0  0  0  0  0  0
  1  3  1  0  0  0  0
  1  5  2  0  0  0  0
  1 13  1  0  0  0  0
  2 14  1  0  0  0  0
  2 15  1  0  0  0  0
  2 24  1  0  0  0  0
  3 25  1  0  0  0  0
  4 10  1  0  0  0  0
  5  8  1  0  0  0  0
  5 22  1  0  0  0  0
  6 16  1  0  0  0  0
  6 19  1  0  0  0  0
  6 20  1  0  0  0  0
  7 11  1  0  0  0  0
  7 12  1  0  0  0  0
  8 10  2  0  0  0  0
  8 26  1  0  0  0  0
  9 14  2  0  0  0  0
 10 11  1  0  0  0  0
 11 13  2  0  0  0  0
 12 27  1  0  0  0  0
 12 28  1  0  0  0  0
 12 29  1  0  0  0  0
 13 14  1  0  0  0  0
 15 16  1  0  0  0  0
 15 30  1  0  0  0  0
 15 31  1  0  0  0  0
 16 17  1  0  0  0  0
 16 32  1  0  0  0  0
 17 18  1  0  0  0  0
 17 33  1  0  0  0  0
 17 34  1  0  0  0  0
 18 19  1  0  0  0  0
 18 35  1  0  0  0  0
 18 36  1  0  0  0  0
 19 37  1  0  0  0  0
 19 38  1  0  0  0  0
 20 21  1  0  0  0  0
 20 39  1  0  0  0  0
 20 40  1  0  0  0  0
 21 41  1  0  0  0  0
 21 42  1  0  0  0  0
 21 43  1  0  0  0  0
 22 23  1  0  0  0  0
 22 44  1  0  0  0  0
 22 45  1  0  0  0  0
 23 46  1  0  0  0  0
 23 47  1  0  0  0  0
 23 48  1  0  0  0  0
M  END
> <ConfScore>
-0.600685 

$$$$
3PBL_ETQ_A_1200
  RCSB PDB10041311333D
Coordinates from PDB:3PBL:A:1200 Model:1 without hydrogens
 48 49  0  0  0  0  0  0  0  0999 V2000
    3.5852    8.0639    7.6143 C   0  0  0  1  0  3  0  0  0  0  0  0
    2.1262    8.6792    5.1713 N   0  0  0  1  0  3  0  0  0  0  0  0
    2.2748    7.7044    7.6018 O   0  0  0  1  0  2  0  0  0  0  0  0
    7.9418    9.2155    7.6650 Cl  0  0  0  1  0  1  0  0  0  0  0  0
    4.2732    8.0866    8.8338 C   0  0  0  1  0  3  0  0  0  0  0  0
    1.9186    6.7234    2.6203 N   0  0  0  1  0  3  0  0  0  0  0  0
    6.2341    9.1222    5.3034 O   0  0  0  1  0  2  0  0  0  0  0  0
    5.6268    8.4287    8.8330 C   0  0  0  1  0  3  0  0  0  0  0  0
    3.9814    8.0685    4.0380 O   0  0  0  1  0  1  0  0  0  0  0  0
    6.2724    8.7649    7.6456 C   0  0  0  1  0  3  0  0  0  0  0  0
    5.5765    8.7628    6.4376 C   0  0  0  1  0  3  0  0  0  0  0  0
    7.5960    9.4250    5.6363 C   0  0  0  1  0  4  0  0  0  0  0  0
    4.2180    8.4209    6.4145 C   0  0  0  1  0  3  0  0  0  0  0  0
    3.4178    8.3513    5.0933 C   0  0  0  1  0  3  0  0  0  0  0  0
    1.2173    8.6925    4.0078 C   0  0  0  1  0  4  0  0  0  0  0  0
    1.9445    8.1610    2.7930 C   0  0  0  1  0  4  0  0  0  0  0  0
    1.4769    8.7346    1.4321 C   0  0  0  1  0  4  0  0  0  0  0  0
    2.0189    7.7439    0.4031 C   0  0  0  1  0  4  0  0  0  0  0  0
    2.4785    6.4879    1.2881 C   0  0  0  1  0  4  0  0  0  0  0  0
    0.5405    6.2199    2.6965 C   0  0  0  1  0  4  0  0  0  0  0  0
    0.4102    4.9194    1.9174 C   0  0  0  1  0  4  0  0  0  0  0  0
    3.6620    7.6860   10.1872 C   0  0  0  1  0  4  0  0  0  0  0  0
    3.2007    6.2272   10.2204 C   0  0  0  1  0  4  0  0  0  0  0  0
    1.7284    8.9467    6.1279 H   0  0  0  1  0  1  0  0  0  0  0  0
    2.0069    7.3233    8.5428 H   0  0  0  1  0  1  0  0  0  0  0  0
    6.1833    8.4327    9.7702 H   0  0  0  1  0  1  0  0  0  0  0  0
    7.7671    9.2177    6.6927 H   0  0  0  1  0  1  0  0  0  0  0  0
    7.7932   10.4782    5.4364 H   0  0  0  1  0  1  0  0  0  0  0  0
    8.2629    8.8091    5.0329 H   0  0  0  1  0  1  0  0  0  0  0  0
    0.8881    9.7137    3.8159 H   0  0  0  1  0  1  0  0  0  0  0  0
    0.3513    8.0642    4.2164 H   0  0  0  1  0  1  0  0  0  0  0  0
    2.9507    8.5015    3.0374 H   0  0  0  1  0  1  0  0  0  0  0  0
    1.8928    9.7287    1.2681 H   0  0  0  1  0  1  0  0  0  0  0  0
    0.3889    8.7832    1.3862 H   0  0  0  1  0  1  0  0  0  0  0  0
    2.8650    8.1689   -0.1369 H   0  0  0  1  0  1  0  0  0  0  0  0
    1.2423    7.4562   -0.3055 H   0  0  0  1  0  1  0  0  0  0  0  0
    2.0860    5.5619    0.8681 H   0  0  0  1  0  1  0  0  0  0  0  0
    3.5661    6.4333    1.3361 H   0  0  0  1  0  1  0  0  0  0  0  0
   -0.1371    6.9617    2.2738 H   0  0  0  1  0  1  0  0  0  0  0  0
    0.2800    6.0417    3.7398 H   0  0  0  1  0  1  0  0  0  0  0  0
   -0.2683    5.2059    1.1138 H   0  0  0  1  0  1  0  0  0  0  0  0
   -0.0174    4.1290    2.5342 H   0  0  0  1  0  1  0  0  0  0  0  0
    1.3737    4.5939    1.5253 H   0  0  0  1  0  1  0  0  0  0  0  0
    2.8032    8.3274   10.3851 H   0  0  0  1  0  1  0  0  0  0  0  0
    4.4119    7.8319   10.9648 H   0  0  0  1  0  1  0  0  0  0  0  0
    3.8982    5.6385   10.8163 H   0  0  0  1  0  1  0  0  0  0  0  0
    3.1688    5.8334    9.2045 H   0  0  0  1  0  1  0  0  0  0  0  0
    2.2067    6.1708   10.6639 H   0  0  0  1  0  1  0  0  0  0  0  0
  1  3  1  0  0  0  0
  1  5  2  0  0  0  0
  1 13  1  0  0  0  0
  2 14  1  0  0  0  0
  2 15  1  0  0  0  0
  2 24  1  0  0  0  0
  3 25  1  0  0  0  0
  4 10  1  0  0  0  0
  5  8  1  0  0  0  0
  5 22  1  0  0  0  0
  6 16  1  0  0  0  0
  6 19  1  0  0  0  0
  6 20  1  0  0  0  0
  7 11  1  0  0  0  0
  7 12  1  0  0  0  0
  8 10  2  0  0  0  0
  8 26  1  0  0  0  0
  9 14  2  0  0  0  0
 10 11  1  0  0  0  0
 11 13  2  0  0  0  0
 12 27  1  0  0  0  0
 12 28  1  0  0  0  0
 12 29  1  0  0  0  0
 13 14  1  0  0  0  0
 15 16  1  0  0  0  0
 15 30  1  0  0  0  0
 15 31  1  0  0  0  0
 16 17  1  0  0  0  0
 16 32  1  0  0  0  0
 17 18  1  0  0  0  0
 17 33  1  0  0  0  0
 17 34  1  0  0  0  0
 18 19  1  0  0  0  0
 18 35  1  0  0  0  0
 18 36  1  0  0  0  0
 19 37  1  0  0  0  0
 19 38  1  0  0  0  0
 20 21  1  0  0  0  0
 20 39  1  0  0  0  0
 20 40  1  0  0  0  0
 21 41  1  0  0  0  0
 21 42  1  0  0  0  0
 21 43  1  0  0  0  0
 22 23  1  0  0  0  0
 22 44  1  0  0  0  0
 22 45  1  0  0  0  0
 23 46  1  0  0  0  0
 23 47  1  0  0  0  0
 23 48  1  0  0  0  0
M  END
> <ConfScore>
-0.301159 

$$$$
3PBL_ETQ_A_1200
  RCSB PDB10041311333D
Coordinates from PDB:3PBL:A:1200 Model:1 without hydrogens
 48 49  0  0  0  0  0  0  0  0999 V2000
    3.5852    8.0639    7.6143 C   0  0  0  1  0  3  0  0  0  0  0  0
    2.1262    8.6792    5.1713 N   0  0  0  1  0  3  0  0  0  0  0  0
    2.2748    7.7044    7.6018 O   0  0  0  1  0  2  0  0  0  0  0  0
    7.9418    9.2155    7.6650 Cl  0  0  0  1  0  1  0  0  0  0  0  0
    4.2732    8.0866    8.8338 C   0  0  0  1  0  3  0  0  0  0  0  0
   -1.0526    8.2043    4.9584 N   0  0  0  1  0  3  0  0  0  0  0  0
    6.2341    9.1222    5.3034 O   0  0  0  1  0  2  0  0  0  0  0  0
    5.6268    8.4287    8.8330 C   0  0  0  1  0  3  0  0  0  0  0  0
    3.9814    8.0685    4.0380 O   0  0  0  1  0  1  0  0  0  0  0  0
    6.2724    8.7649    7.6456 C   0  0  0  1  0  3  0  0  0  0  0  0
    5.5765    8.7628    6.4376 C   0  0  0  1  0  3  0  0  0  0  0  0
    7.5960    9.4250    5.6363 C   0  0  0  1  0  4  0  0  0  0  0  0
    4.2180    8.4209    6.4145 C   0  0  0  1  0  3  0  0  0  0  0  0
    3.4178    8.3513    5.0933 C   0  0  0  1  0  3  0  0  0  0  0  0
    1.2173    8.6925    4.0078 C   0  0  0  1  0  4  0  0  0  0  0  0
    0.0956    7.7032    4.2321 C   0  0  0  1  0  4  0  0  0  0  0  0
   -0.4922    7.0600    2.9513 C   0  0  0  1  0  4  0  0  0  0  0  0
   -1.8375    6.4933    3.4016 C   0  0  0  1  0  4  0  0  0  0  0  0
   -2.0654    7.1529    4.8455 C   0  0  0  1  0  4  0  0  0  0  0  0
   -1.5377    9.4538    4.3569 C   0  0  0  1  0  4  0  0  0  0  0  0
   -3.0191    9.6402    4.6503 C   0  0  0  1  0  4  0  0  0  0  0  0
    3.6620    7.6860   10.1872 C   0  0  0  1  0  4  0  0  0  0  0  0
    3.2007    6.2272   10.2204 C   0  0  0  1  0  4  0  0  0  0  0  0
    1.7284    8.9467    6.1279 H   0  0  0  1  0  1  0  0  0  0  0  0
    2.0069    7.3233    8.5428 H   0  0  0  1  0  1  0  0  0  0  0  0
    6.1833    8.4327    9.7702 H   0  0  0  1  0  1  0  0  0  0  0  0
    7.7671    9.2177    6.6927 H   0  0  0  1  0  1  0  0  0  0  0  0
    7.7932   10.4782    5.4364 H   0  0  0  1  0  1  0  0  0  0  0  0
    8.2629    8.8091    5.0329 H   0  0  0  1  0  1  0  0  0  0  0  0
    1.7715    8.4158    3.1109 H   0  0  0  1  0  1  0  0  0  0  0  0
    0.8005    9.6920    3.8841 H   0  0  0  1  0  1  0  0  0  0  0  0
    0.6370    6.9679    4.8274 H   0  0  0  1  0  1  0  0  0  0  0  0
    0.1582    6.2664    2.5837 H   0  0  0  1  0  1  0  0  0  0  0  0
   -0.6297    7.8085    2.1709 H   0  0  0  1  0  1  0  0  0  0  0  0
   -1.7966    5.4064    3.4733 H   0  0  0  1  0  1  0  0  0  0  0  0
   -2.6311    6.7828    2.7127 H   0  0  0  1  0  1  0  0  0  0  0  0
   -3.0662    7.5789    4.9161 H   0  0  0  1  0  1  0  0  0  0  0  0
   -1.9307    6.4083    5.6301 H   0  0  0  1  0  1  0  0  0  0  0  0
   -1.3868    9.4158    3.2781 H   0  0  0  1  0  1  0  0  0  0  0  0
   -0.9804   10.2931    4.7729 H   0  0  0  1  0  1  0  0  0  0  0  0
   -3.1931    9.5416    5.7218 H   0  0  0  1  0  1  0  0  0  0  0  0
   -3.5929    8.8816    4.1180 H   0  0  0  1  0  1  0  0  0  0  0  0
   -3.3325   10.6310    4.3212 H   0  0  0  1  0  1  0  0  0  0  0  0
    2.8032    8.3274   10.3851 H   0  0  0  1  0  1  0  0  0  0  0  0
    4.4119    7.8319   10.9648 H   0  0  0  1  0  1  0  0  0  0  0  0
    3.8982    5.6385   10.8163 H   0  0  0  1  0  1  0  0  0  0  0  0
    3.1688    5.8334    9.2045 H   0  0  0  1  0  1  0  0  0  0  0  0
    2.2067    6.1708   10.6639 H   0  0  0  1  0  1  0  0  0  0  0  0
  1  3  1  0  0  0  0
  1  5  2  0  0  0  0
  1 13  1  0  0  0  0
  2 14  1  0  0  0  0
  2 15  1  0  0  0  0
  2 24  1  0  0  0  0
  3 25  1  0  0  0  0
  4 10  1  0  0  0  0
  5  8  1  0  0  0  0
  5 22  1  0  0  0  0
  6 16  1  0  0  0  0
  6 19  1  0  0  0  0
  6 20  1  0  0  0  0
  7 11  1  0  0  0  0
  7 12  1  0  0  0  0
  8 10  2  0  0  0  0
  8 26  1  0  0  0  0
  9 14  2  0  0  0  0
 10 11  1  0  0  0  0
 11 13  2  0  0  0  0
 12 27  1  0  0  0  0
 12 28  1  0  0  0  0
 12 29  1  0  0  0  0
 13 14  1  0  0  0  0
 15 16  1  0  0  0  0
 15 30  1  0  0  0  0
 15 31  1  0  0  0  0
 16 17  1  0  0  0  0
 16 32  1  0  0  0  0
 17 18  1  0  0  0  0
 17 33  1  0  0  0  0
 17 34  1  0  0  0  0
 18 19  1  0  0  0  0
 18 35  1  0  0  0  0
 18 36  1  0  0  0  0
 19 37  1  0  0  0  0
 19 38  1  0  0  0  0
 20 21  1  0  0  0  0
 20 39  1  0  0  0  0
 20 40  1  0  0  0  0
 21 41  1  0  0  0  0
 21 42  1  0  0  0  0
 21 43  1  0  0  0  0
 22 23  1  0  0  0  0
 22 44  1  0  0  0  0
 22 45  1  0  0  0  0
 23 46  1  0  0  0  0
 23 47  1  0  0  0  0
 23 48  1  0  0  0  0
M  END
> <ConfScore>
-0.38092 

$$$$
3PBL_ETQ_A_1200
  RCSB PDB10041311333D
Coordinates from PDB:3PBL:A:1200 Model:1 without hydrogens
 48 49  0  0  0  0  0  0  0  0999 V2000
    3.5852    8.0639    7.6143 C   0  0  0  1  0  3  0  0  0  0  0  0
    4.1122    8.5697    3.9743 N   0  0  0  1  0  3  0  0  0  0  0  0
    2.2748    7.7044    7.6018 O   0  0  0  1  0  2  0  0  0  0  0  0
    7.9418    9.2155    7.6650 Cl  0  0  0  1  0  1  0  0  0  0  0  0
    4.2732    8.0866    8.8338 C   0  0  0  1  0  3  0  0  0  0  0  0
    4.8773   10.0647    1.2256 N   0  0  0  1  0  3  0  0  0  0  0  0
    6.2341    9.1222    5.3034 O   0  0  0  1  0  2  0  0  0  0  0  0
    5.6268    8.4287    8.8330 C   0  0  0  1  0  3  0  0  0  0  0  0
    2.2267    8.0475    5.1018 O   0  0  0  1  0  1  0  0  0  0  0  0
    6.2724    8.7649    7.6456 C   0  0  0  1  0  3  0  0  0  0  0  0
    5.5765    8.7628    6.4376 C   0  0  0  1  0  3  0  0  0  0  0  0
    7.5960    9.4250    5.6363 C   0  0  0  1  0  4  0  0  0  0  0  0
    4.2180    8.4209    6.4145 C   0  0  0  1  0  3  0  0  0  0  0  0
    3.4178    8.3513    5.0933 C   0  0  0  1  0  3  0  0  0  0  0  0
    3.5281    8.4755    2.6215 C   0  0  0  1  0  4  0  0  0  0  0  0
    3.6368    9.8162    1.9303 C   0  0  0  1  0  4  0  0  0  0  0  0
    2.5232   10.1269    0.8992 C   0  0  0  1  0  4  0  0  0  0  0  0
    3.0984   11.2669    0.0604 C   0  0  0  1  0  4  0  0  0  0  0  0
    4.6482   11.2986    0.4713 C   0  0  0  1  0  4  0  0  0  0  0  0
    5.1842    8.9535    0.3150 C   0  0  0  1  0  4  0  0  0  0  0  0
    6.0503    9.4398   -0.8377 C   0  0  0  1  0  4  0  0  0  0  0  0
    3.6620    7.6860   10.1872 C   0  0  0  1  0  4  0  0  0  0  0  0
    3.2007    6.2272   10.2204 C   0  0  0  1  0  4  0  0  0  0  0  0
    5.1471    8.8267    4.0624 H   0  0  0  1  0  1  0  0  0  0  0  0
    2.0069    7.3233    8.5428 H   0  0  0  1  0  1  0  0  0  0  0  0
    6.1833    8.4327    9.7702 H   0  0  0  1  0  1  0  0  0  0  0  0
    7.7671    9.2177    6.6927 H   0  0  0  1  0  1  0  0  0  0  0  0
    7.7932   10.4782    5.4364 H   0  0  0  1  0  1  0  0  0  0  0  0
    8.2629    8.8091    5.0329 H   0  0  0  1  0  1  0  0  0  0  0  0
    2.4788    8.1905    2.6981 H   0  0  0  1  0  1  0  0  0  0  0  0
    4.0679    7.7247    2.0445 H   0  0  0  1  0  1  0  0  0  0  0  0
    3.5539   10.4627    2.8040 H   0  0  0  1  0  1  0  0  0  0  0  0
    1.6078   10.4400    1.4012 H   0  0  0  1  0  1  0  0  0  0  0  0
    2.3175    9.2553    0.2778 H   0  0  0  1  0  1  0  0  0  0  0  0
    2.6126   12.2118    0.3042 H   0  0  0  1  0  1  0  0  0  0  0  0
    2.9829   11.0625   -1.0040 H   0  0  0  1  0  1  0  0  0  0  0  0
    5.2777   11.3238   -0.4181 H   0  0  0  1  0  1  0  0  0  0  0  0
    4.8601   12.1693    1.0918 H   0  0  0  1  0  1  0  0  0  0  0  0
    4.2541    8.5459   -0.0812 H   0  0  0  1  0  1  0  0  0  0  0  0
    5.7177    8.1766    0.8627 H   0  0  0  1  0  1  0  0  0  0  0  0
    7.1019    9.3050   -0.5848 H   0  0  0  1  0  1  0  0  0  0  0  0
    5.8531   10.4964   -1.0193 H   0  0  0  1  0  1  0  0  0  0  0  0
    5.8162    8.8666   -1.7347 H   0  0  0  1  0  1  0  0  0  0  0  0
    2.8032    8.3274   10.3851 H   0  0  0  1  0  1  0  0  0  0  0  0
    4.4119    7.8319   10.9648 H   0  0  0  1  0  1  0  0  0  0  0  0
    3.8982    5.6385   10.8163 H   0  0  0  1  0  1  0  0  0  0  0  0
    3.1688    5.8334    9.2045 H   0  0  0  1  0  1  0  0  0  0  0  0
    2.2067    6.1708   10.6639 H   0  0  0  1  0  1  0  0  0  0  0  0
  1  3  1  0  0  0  0
  1  5  2  0  0  0  0
  1 13  1  0  0  0  0
  2 14  1  0  0  0  0
  2 15  1  0  0  0  0
  2 24  1  0  0  0  0
  3 25  1  0  0  0  0
  4 10  1  0  0  0  0
  5  8  1  0  0  0  0
  5 22  1  0  0  0  0
  6 16  1  0  0  0  0
  6 19  1  0  0  0  0
  6 20  1  0  0  0  0
  7 11  1  0  0  0  0
  7 12  1  0  0  0  0
  8 10  2  0  0  0  0
  8 26  1  0  0  0  0
  9 14  2  0  0  0  0
 10 11  1  0  0  0  0
 11 13  2  0  0  0  0
 12 27  1  0  0  0  0
 12 28  1  0  0  0  0
 12 29  1  0  0  0  0
 13 14  1  0  0  0  0
 15 16  1  0  0  0  0
 15 30  1  0  0  0  0
 15 31  1  0  0  0  0
 16 17  1  0  0  0  0
 16 32  1  0  0  0  0
 17 18  1  0  0  0  0
 17 33  1  0  0  0  0
 17 34  1  0  0  0  0
 18 19  1  0  0  0  0
 18 35  1  0  0  0  0
 18 36  1  0  0  0  0
 19 37  1  0  0  0  0
 19 38  1  0  0  0  0
 20 21  1  0  0  0  0
 20 39  1  0  0  0  0
 20 40  1  0  0  0  0
 21 41  1  0  0  0  0
 21 42  1  0  0  0  0
 21 43  1  0  0  0  0
 22 23  1  0  0  0  0
 22 44  1  0  0  0  0
 22 45  1  0  0  0  0
 23 46  1  0  0  0  0
 23 47  1  0  0  0  0
 23 48  1  0  0  0  0
M  END
> <ConfScore>
-0.673965 

$$$$
3PBL_ETQ_A_1200
  RCSB PDB10041311333D
Coordinates from PDB:3PBL:A:1200 Model:1 without hydrogens
 48 49  0  0  0  0  0  0  0  0999 V2000
    3.5852    8.0639    7.6143 C   0  0  0  1  0  3  0  0  0  0  0  0
    4.0995    8.6261    3.9790 N   0  0  0  1  0  3  0  0  0  0  0  0
    2.2748    7.7044    7.6018 O   0  0  0  1  0  2  0  0  0  0  0  0
    7.9418    9.2155    7.6650 Cl  0  0  0  1  0  1  0  0  0  0  0  0
    4.2732    8.0866    8.8338 C   0  0  0  1  0  3  0  0  0  0  0  0
    4.7990   10.2241    1.2711 N   0  0  0  1  0  3  0  0  0  0  0  0
    6.2341    9.1222    5.3034 O   0  0  0  1  0  2  0  0  0  0  0  0
    5.6268    8.4287    8.8330 C   0  0  0  1  0  3  0  0  0  0  0  0
    2.2403    7.9983    5.0961 O   0  0  0  1  0  1  0  0  0  0  0  0
    6.2724    8.7649    7.6456 C   0  0  0  1  0  3  0  0  0  0  0  0
    5.5765    8.7628    6.4376 C   0  0  0  1  0  3  0  0  0  0  0  0
    7.5843    9.4672    5.6429 C   0  0  0  1  0  4  0  0  0  0  0  0
    4.2180    8.4209    6.4145 C   0  0  0  1  0  3  0  0  0  0  0  0
    3.4178    8.3513    5.0933 C   0  0  0  1  0  3  0  0  0  0  0  0
    3.5143    8.5481    2.6257 C   0  0  0  1  0  4  0  0  0  0  0  0
    3.5710    9.9106    1.9718 C   0  0  0  1  0  4  0  0  0  0  0  0
    2.4430   10.2085    0.9527 C   0  0  0  1  0  4  0  0  0  0  0  0
    2.9727   11.3919    0.1446 C   0  0  0  1  0  4  0  0  0  0  0  0
    4.5219   11.4692    0.5521 C   0  0  0  1  0  4  0  0  0  0  0  0
    5.1432    9.1507    0.3290 C   0  0  0  1  0  4  0  0  0  0  0  0
    5.9865    9.7005   -0.8120 C   0  0  0  1  0  4  0  0  0  0  0  0
    3.6620    7.6860   10.1872 C   0  0  0  1  0  4  0  0  0  0  0  0
    2.1805    8.0524   10.2999 C   0  0  0  1  0  4  0  0  0  0  0  0
    5.1246    8.9186    4.0715 H   0  0  0  1  0  1  0  0  0  0  0  0
    2.0069    7.3233    8.5428 H   0  0  0  1  0  1  0  0  0  0  0  0
    6.1833    8.4327    9.7702 H   0  0  0  1  0  1  0  0  0  0  0  0
    7.7584    9.2595    6.6987 H   0  0  0  1  0  1  0  0  0  0  0  0
    7.7477   10.5274    5.4497 H   0  0  0  1  0  1  0  0  0  0  0  0
    8.2729    8.8768    5.0384 H   0  0  0  1  0  1  0  0  0  0  0  0
    2.4765    8.2226    2.6971 H   0  0  0  1  0  1  0  0  0  0  0  0
    4.0792    7.8340    2.0265 H   0  0  0  1  0  1  0  0  0  0  0  0
    3.4677   10.5290    2.8634 H   0  0  0  1  0  1  0  0  0  0  0  0
    1.5185   10.4736    1.4658 H   0  0  0  1  0  1  0  0  0  0  0  0
    2.2672    9.3476    0.3078 H   0  0  0  1  0  1  0  0  0  0  0  0
    2.4534   12.3110    0.4159 H   0  0  0  1  0  1  0  0  0  0  0  0
    2.8609   11.2129   -0.9248 H   0  0  0  1  0  1  0  0  0  0  0  0
    5.1468   11.5423   -0.3380 H   0  0  0  1  0  1  0  0  0  0  0  0
    4.7039   12.3296    1.1961 H   0  0  0  1  0  1  0  0  0  0  0  0
    4.2272    8.7203   -0.0759 H   0  0  0  1  0  1  0  0  0  0  0  0
    5.7069    8.3792    0.8534 H   0  0  0  1  0  1  0  0  0  0  0  0
    7.0434    9.5781   -0.5751 H   0  0  0  1  0  1  0  0  0  0  0  0
    5.7655   10.7590   -0.9496 H   0  0  0  1  0  1  0  0  0  0  0  0
    5.7547    9.1583   -1.7288 H   0  0  0  1  0  1  0  0  0  0  0  0
    4.2082    8.1962   10.9806 H   0  0  0  1  0  1  0  0  0  0  0  0
    3.7645    6.6078   10.3102 H   0  0  0  1  0  1  0  0  0  0  0  0
    2.0374    9.0881    9.9919 H   0  0  0  1  0  1  0  0  0  0  0  0
    1.8543    7.9323   11.3330 H   0  0  0  1  0  1  0  0  0  0  0  0
    1.5945    7.3976    9.6549 H   0  0  0  1  0  1  0  0  0  0  0  0
  1  3  1  0  0  0  0
  1  5  2  0  0  0  0
  1 13  1  0  0  0  0
  2 14  1  0  0  0  0
  2 15  1  0  0  0  0
  2 24  1  0  0  0  0
  3 25  1  0  0  0  0
  4 10  1  0  0  0  0
  5  8  1  0  0  0  0
  5 22  1  0  0  0  0
  6 16  1  0  0  0  0
  6 19  1  0  0  0  0
  6 20  1  0  0  0  0
  7 11  1  0  0  0  0
  7 12  1  0  0  0  0
  8 10  2  0  0  0  0
  8 26  1  0  0  0  0
  9 14  2  0  0  0  0
 10 11  1  0  0  0  0
 11 13  2  0  0  0  0
 12 27  1  0  0  0  0
 12 28  1  0  0  0  0
 12 29  1  0  0  0  0
 13 14  1  0  0  0  0
 15 16  1  0  0  0  0
 15 30  1  0  0  0  0
 15 31  1  0  0  0  0
 16 17  1  0  0  0  0
 16 32  1  0  0  0  0
 17 18  1  0  0  0  0
 17 33  1  0  0  0  0
 17 34  1  0  0  0  0
 18 19  1  0  0  0  0
 18 35  1  0  0  0  0
 18 36  1  0  0  0  0
 19 37  1  0  0  0  0
 19 38  1  0  0  0  0
 20 21  1  0  0  0  0
 20 39  1  0  0  0  0
 20 40  1  0  0  0  0
 21 41  1  0  0  0  0
 21 42  1  0  0  0  0
 21 43  1  0  0  0  0
 22 23  1  0  0  0  0
 22 44  1  0  0  0  0
 22 45  1  0  0  0  0
 23 46  1  0  0  0  0
 23 47  1  0  0  0  0
 23 48  1  0  0  0  0
M  END
> <ConfScore>
-0.576331 

$$$$
3PBL_ETQ_A_1200
  RCSB PDB10041311333D
Coordinates from PDB:3PBL:A:1200 Model:1 without hydrogens
 48 49  0  0  0  0  0  0  0  0999 V2000
    3.5852    8.0639    7.6143 C   0  0  0  1  0  3  0  0  0  0  0  0
    4.0995    8.6261    3.9790 N   0  0  0  1  0  3  0  0  0  0  0  0
    2.2748    7.7044    7.6018 O   0  0  0  1  0  2  0  0  0  0  0  0
    7.9418    9.2155    7.6650 Cl  0  0  0  1  0  1  0  0  0  0  0  0
    4.2732    8.0866    8.8338 C   0  0  0  1  0  3  0  0  0  0  0  0
    6.4531    8.2021    1.8210 N   0  0  0  1  0  3  0  0  0  0  0  0
    6.2341    9.1222    5.3034 O   0  0  0  1  0  2  0  0  0  0  0  0
    5.6268    8.4287    8.8330 C   0  0  0  1  0  3  0  0  0  0  0  0
    2.2403    7.9983    5.0961 O   0  0  0  1  0  1  0  0  0  0  0  0
    6.2724    8.7649    7.6456 C   0  0  0  1  0  3  0  0  0  0  0  0
    5.5765    8.7628    6.4376 C   0  0  0  1  0  3  0  0  0  0  0  0
    7.5843    9.4672    5.6429 C   0  0  0  1  0  4  0  0  0  0  0  0
    4.2180    8.4209    6.4145 C   0  0  0  1  0  3  0  0  0  0  0  0
    3.4178    8.3513    5.0933 C   0  0  0  1  0  3  0  0  0  0  0  0
    5.5062    9.0748    3.9742 C   0  0  0  1  0  4  0  0  0  0  0  0
    6.3598    8.0521    3.2584 C   0  0  0  1  0  4  0  0  0  0  0  0
    7.8271    7.9504    3.7448 C   0  0  0  1  0  4  0  0  0  0  0  0
    8.5469    7.2225    2.6108 C   0  0  0  1  0  4  0  0  0  0  0  0
    7.4910    7.2571    1.4043 C   0  0  0  1  0  4  0  0  0  0  0  0
    6.8364    9.5763    1.4702 C   0  0  0  1  0  4  0  0  0  0  0  0
    7.5408    9.5995    0.1216 C   0  0  0  1  0  4  0  0  0  0  0  0
    3.6620    7.6860   10.1872 C   0  0  0  1  0  4  0  0  0  0  0  0
    2.1805    8.0524   10.2999 C   0  0  0  1  0  4  0  0  0  0  0  0
    3.6000    8.5154    3.0393 H   0  0  0  1  0  1  0  0  0  0  0  0
    2.0069    7.3233    8.5428 H   0  0  0  1  0  1  0  0  0  0  0  0
    6.1833    8.4327    9.7702 H   0  0  0  1  0  1  0  0  0  0  0  0
    7.7584    9.2595    6.6987 H   0  0  0  1  0  1  0  0  0  0  0  0
    7.7477   10.5274    5.4497 H   0  0  0  1  0  1  0  0  0  0  0  0
    8.2729    8.8768    5.0384 H   0  0  0  1  0  1  0  0  0  0  0  0
    5.8557    9.1848    5.0008 H   0  0  0  1  0  1  0  0  0  0  0  0
    5.5799   10.0331    3.4601 H   0  0  0  1  0  1  0  0  0  0  0  0
    5.7979    7.1544    3.5163 H   0  0  0  1  0  1  0  0  0  0  0  0
    7.8886    7.3794    4.6712 H   0  0  0  1  0  1  0  0  0  0  0  0
    8.2528    8.9418    3.8995 H   0  0  0  1  0  1  0  0  0  0  0  0
    8.7793    6.1959    2.8941 H   0  0  0  1  0  1  0  0  0  0  0  0
    9.4657    7.7414    2.3377 H   0  0  0  1  0  1  0  0  0  0  0  0
    7.9713    7.5987    0.4874 H   0  0  0  1  0  1  0  0  0  0  0  0
    7.0631    6.2675    1.2440 H   0  0  0  1  0  1  0  0  0  0  0  0
    7.5084    9.9681    2.2337 H   0  0  0  1  0  1  0  0  0  0  0  0
    5.9419   10.1971    1.4194 H   0  0  0  1  0  1  0  0  0  0  0  0
    8.5773    9.2865    0.2471 H   0  0  0  1  0  1  0  0  0  0  0  0
    7.5135   10.6105   -0.2849 H   0  0  0  1  0  1  0  0  0  0  0  0
    7.0361    8.9182   -0.5634 H   0  0  0  1  0  1  0  0  0  0  0  0
    4.2082    8.1962   10.9806 H   0  0  0  1  0  1  0  0  0  0  0  0
    3.7645    6.6078   10.3102 H   0  0  0  1  0  1  0  0  0  0  0  0
    2.0374    9.0881    9.9919 H   0  0  0  1  0  1  0  0  0  0  0  0
    1.8543    7.9323   11.3330 H   0  0  0  1  0  1  0  0  0  0  0  0
    1.5945    7.3976    9.6549 H   0  0  0  1  0  1  0  0  0  0  0  0
  1  3  1  0  0  0  0
  1  5  2  0  0  0  0
  1 13  1  0  0  0  0
  2 14  1  0  0  0  0
  2 15  1  0  0  0  0
  2 24  1  0  0  0  0
  3 25  1  0  0  0  0
  4 10  1  0  0  0  0
  5  8  1  0  0  0  0
  5 22  1  0  0  0  0
  6 16  1  0  0  0  0
  6 19  1  0  0  0  0
  6 20  1  0  0  0  0
  7 11  1  0  0  0  0
  7 12  1  0  0  0  0
  8 10  2  0  0  0  0
  8 26  1  0  0  0  0
  9 14  2  0  0  0  0
 10 11  1  0  0  0  0
 11 13  2  0  0  0  0
 12 27  1  0  0  0  0
 12 28  1  0  0  0  0
 12 29  1  0  0  0  0
 13 14  1  0  0  0  0
 15 16  1  0  0  0  0
 15 30  1  0  0  0  0
 15 31  1  0  0  0  0
 16 17  1  0  0  0  0
 16 32  1  0  0  0  0
 17 18  1  0  0  0  0
 17 33  1  0  0  0  0
 17 34  1  0  0  0  0
 18 19  1  0  0  0  0
 18 35  1  0  0  0  0
 18 36  1  0  0  0  0
 19 37  1  0  0  0  0
 19 38  1  0  0  0  0
 20 21  1  0  0  0  0
 20 39  1  0  0  0  0
 20 40  1  0  0  0  0
 21 41  1  0  0  0  0
 21 42  1  0  0  0  0
 21 43  1  0  0  0  0
 22 23  1  0  0  0  0
 22 44  1  0  0  0  0
 22 45  1  0  0  0  0
 23 46  1  0  0  0  0
 23 47  1  0  0  0  0
 23 48  1  0  0  0  0
M  END
> <ConfScore>
-0.424065 

$$$$
3PBL_ETQ_A_1200
  RCSB PDB10041311333D
Coordinates from PDB:3PBL:A:1200 Model:1 without hydrogens
 48 49  0  0  0  0  0  0  0  0999 V2000
   -0.8080  -12.3360   10.5520 C   0  0  0  1  0  3  0  0  0  0  0  0
    0.8670  -15.5906   11.1819 N   0  0  0  1  0  3  0  0  0  0  0  0
   -1.5290  -12.2300   11.6990 O   0  0  0  1  0  2  0  0  0  0  0  0
    1.6090  -12.6560    6.7620 Cl  0  0  0  1  0  1  0  0  0  0  0  0
   -0.8770  -11.3050    9.6070 C   0  0  0  1  0  3  0  0  0  0  0  0
    1.7134  -18.4506   10.5239 N   0  0  0  1  0  3  0  0  0  0  0  0
    1.5050  -14.6500    8.8870 O   0  0  0  1  0  2  0  0  0  0  0  0
   -0.1100  -11.4090    8.4450 C   0  0  0  1  0  3  0  0  0  0  0  0
   -0.6074  -14.4526   12.4585 O   0  0  0  1  0  1  0  0  0  0  0  0
    0.6880  -12.5280    8.2200 C   0  0  0  1  0  3  0  0  0  0  0  0
    0.7350  -13.5620    9.1540 C   0  0  0  1  0  3  0  0  0  0  0  0
    2.1512  -14.4580    7.6209 C   0  0  0  1  0  4  0  0  0  0  0  0
   -0.0250  -13.4780   10.3280 C   0  0  0  1  0  3  0  0  0  0  0  0
    0.0360  -14.5730   11.4180 C   0  0  0  1  0  3  0  0  0  0  0  0
    1.1048  -16.6877   12.1409 C   0  0  0  1  0  4  0  0  0  0  0  0
    0.7216  -18.0453   11.5410 C   0  0  0  1  0  4  0  0  0  0  0  0
    0.7607  -19.1132   12.6316 C   0  0  0  1  0  4  0  0  0  0  0  0
    2.1903  -19.6220   12.5484 C   0  0  0  1  0  4  0  0  0  0  0  0
    2.4340  -19.6286   11.0469 C   0  0  0  1  0  4  0  0  0  0  0  0
    1.0044  -18.8073    9.2877 C   0  0  0  1  0  4  0  0  0  0  0  0
    1.9253  -18.6484    8.0868 C   0  0  0  1  0  4  0  0  0  0  0  0
   -1.6890  -10.0110    9.7860 C   0  0  0  1  0  4  0  0  0  0  0  0
   -1.2246   -9.1814   10.9852 C   0  0  0  1  0  4  0  0  0  0  0  0
    1.3886  -15.6124   10.2478 H   0  0  0  1  0  1  0  0  0  0  0  0
   -0.8760  -12.1546   12.5178 H   0  0  0  1  0  1  0  0  0  0  0  0
   -0.1360  -10.6071    7.7072 H   0  0  0  1  0  1  0  0  0  0  0  0
    3.1987  -14.7490    7.6992 H   0  0  0  1  0  1  0  0  0  0  0  0
    2.0865  -13.4080    7.3357 H   0  0  0  1  0  1  0  0  0  0  0  0
    1.6596  -15.0711    6.8656 H   0  0  0  1  0  1  0  0  0  0  0  0
    0.5064  -16.5133   13.0351 H   0  0  0  1  0  1  0  0  0  0  0  0
    2.1616  -16.7032   12.4076 H   0  0  0  1  0  1  0  0  0  0  0  0
   -0.2723  -17.9529   11.1031 H   0  0  0  1  0  1  0  0  0  0  0  0
    0.0470  -19.9110   12.4264 H   0  0  0  1  0  1  0  0  0  0  0  0
    0.5532  -18.6824   13.6111 H   0  0  0  1  0  1  0  0  0  0  0  0
    2.2796  -20.6237   12.9688 H   0  0  0  1  0  1  0  0  0  0  0  0
    2.8804  -18.9503   13.0590 H   0  0  0  1  0  1  0  0  0  0  0  0
    3.5000  -19.5482   10.8340 H   0  0  0  1  0  1  0  0  0  0  0  0
    2.0420  -20.5431   10.6018 H   0  0  0  1  0  1  0  0  0  0  0  0
    0.1405  -18.1536    9.1673 H   0  0  0  1  0  1  0  0  0  0  0  0
    0.6710  -19.8431    9.3505 H   0  0  0  1  0  1  0  0  0  0  0  0
    2.9479  -18.8882    8.3781 H   0  0  0  1  0  1  0  0  0  0  0  0
    1.8814  -17.6197    7.7292 H   0  0  0  1  0  1  0  0  0  0  0  0
    1.6062  -19.3236    7.2927 H   0  0  0  1  0  1  0  0  0  0  0  0
   -2.7369  -10.2745    9.9296 H   0  0  0  1  0  1  0  0  0  0  0  0
   -1.5859   -9.4076    8.8842 H   0  0  0  1  0  1  0  0  0  0  0  0
   -0.2687   -9.5634   11.3436 H   0  0  0  1  0  1  0  0  0  0  0  0
   -1.9648   -9.2497   11.7824 H   0  0  0  1  0  1  0  0  0  0  0  0
   -1.1096   -8.1403   10.6837 H   0  0  0  1  0  1  0  0  0  0  0  0
  1  3  1  0  0  0  0
  1  5  2  0  0  0  0
  1 13  1  0  0  0  0
  2 14  1  0  0  0  0
  2 15  1  0  0  0  0
  2 24  1  0  0  0  0
  3 25  1  0  0  0  0
  4 10  1  0  0  0  0
  5  8  1  0  0  0  0
  5 22  1  0  0  0  0
  6 16  1  0  0  0  0
  6 19  1  0  0  0  0
  6 20  1  0  0  0  0
  7 11  1  0  0  0  0
  7 12  1  0  0  0  0
  8 10  2  0  0  0  0
  8 26  1  0  0  0  0
  9 14  2  0  0  0  0
 10 11  1  0  0  0  0
 11 13  2  0  0  0  0
 12 27  1  0  0  0  0
 12 28  1  0  0  0  0
 12 29  1  0  0  0  0
 13 14  1  0  0  0  0
 15 16  1  0  0  0  0
 15 30  1  0  0  0  0
 15 31  1  0  0  0  0
 16 17  1  0  0  0  0
 16 32  1  0  0  0  0
 17 18  1  0  0  0  0
 17 33  1  0  0  0  0
 17 34  1  0  0  0  0
 18 19  1  0  0  0  0
 18 35  1  0  0  0  0
 18 36  1  0  0  0  0
 19 37  1  0  0  0  0
 19 38  1  0  0  0  0
 20 21  1  0  0  0  0
 20 39  1  0  0  0  0
 20 40  1  0  0  0  0
 21 41  1  0  0  0  0
 21 42  1  0  0  0  0
 21 43  1  0  0  0  0
 22 23  1  0  0  0  0
 22 44  1  0  0  0  0
 22 45  1  0  0  0  0
 23 46  1  0  0  0  0
 23 47  1  0  0  0  0
 23 48  1  0  0  0  0
M  END
> <ConfScore>
-0.704524 

$$$$
3PBL_ETQ_A_1200
  RCSB PDB10041311333D
Coordinates from PDB:3PBL:A:1200 Model:1 without hydrogens
 48 49  0  0  0  0  0  0  0  0999 V2000
   -0.8080  -12.3360   10.5520 C   0  0  0  1  0  3  0  0  0  0  0  0
    0.8670  -15.5906   11.1819 N   0  0  0  1  0  3  0  0  0  0  0  0
   -1.5290  -12.2300   11.6990 O   0  0  0  1  0  2  0  0  0  0  0  0
    1.6090  -12.6560    6.7620 Cl  0  0  0  1  0  1  0  0  0  0  0  0
   -0.8770  -11.3050    9.6070 C   0  0  0  1  0  3  0  0  0  0  0  0
    0.6832  -15.4853   14.2288 N   0  0  0  1  0  3  0  0  0  0  0  0
    1.5050  -14.6500    8.8870 O   0  0  0  1  0  2  0  0  0  0  0  0
   -0.1100  -11.4090    8.4450 C   0  0  0  1  0  3  0  0  0  0  0  0
   -0.6074  -14.4526   12.4585 O   0  0  0  1  0  1  0  0  0  0  0  0
    0.6880  -12.5280    8.2200 C   0  0  0  1  0  3  0  0  0  0  0  0
    0.7350  -13.5620    9.1540 C   0  0  0  1  0  3  0  0  0  0  0  0
    2.1512  -14.4580    7.6209 C   0  0  0  1  0  4  0  0  0  0  0  0
   -0.0250  -13.4780   10.3280 C   0  0  0  1  0  3  0  0  0  0  0  0
    0.0360  -14.5730   11.4180 C   0  0  0  1  0  3  0  0  0  0  0  0
    1.0708  -16.7110   12.1216 C   0  0  0  1  0  4  0  0  0  0  0  0
    1.6871  -16.2280   13.4395 C   0  0  0  1  0  4  0  0  0  0  0  0
    2.0938  -17.4337   14.2834 C   0  0  0  1  0  4  0  0  0  0  0  0
    0.8461  -17.6978   15.1100 C   0  0  0  1  0  4  0  0  0  0  0  0
    0.3781  -16.2865   15.4311 C   0  0  0  1  0  4  0  0  0  0  0  0
    1.2552  -14.1909   14.6234 C   0  0  0  1  0  4  0  0  0  0  0  0
    1.6020  -13.3695   13.3903 C   0  0  0  1  0  4  0  0  0  0  0  0
   -1.6890  -10.0110    9.7860 C   0  0  0  1  0  4  0  0  0  0  0  0
   -1.2246   -9.1814   10.9852 C   0  0  0  1  0  4  0  0  0  0  0  0
    1.4146  -15.5946   10.2626 H   0  0  0  1  0  1  0  0  0  0  0  0
   -0.8760  -12.1546   12.5178 H   0  0  0  1  0  1  0  0  0  0  0  0
   -0.1360  -10.6071    7.7072 H   0  0  0  1  0  1  0  0  0  0  0  0
    3.1987  -14.7490    7.6992 H   0  0  0  1  0  1  0  0  0  0  0  0
    2.0865  -13.4080    7.3357 H   0  0  0  1  0  1  0  0  0  0  0  0
    1.6596  -15.0711    6.8656 H   0  0  0  1  0  1  0  0  0  0  0  0
    1.7386  -17.4409   11.6641 H   0  0  0  1  0  1  0  0  0  0  0  0
    0.1086  -17.1787   12.3303 H   0  0  0  1  0  1  0  0  0  0  0  0
    2.5427  -15.5962   13.2009 H   0  0  0  1  0  1  0  0  0  0  0  0
    2.9453  -17.1977   14.9215 H   0  0  0  1  0  1  0  0  0  0  0  0
    2.3369  -18.2899   13.6541 H   0  0  0  1  0  1  0  0  0  0  0  0
    1.0822  -18.2532   16.0176 H   0  0  0  1  0  1  0  0  0  0  0  0
    0.0974  -18.2424   14.5346 H   0  0  0  1  0  1  0  0  0  0  0  0
   -0.6930  -16.2774   15.6327 H   0  0  0  1  0  1  0  0  0  0  0  0
    0.9144  -15.8951   16.2955 H   0  0  0  1  0  1  0  0  0  0  0  0
    2.1591  -14.3605   15.2083 H   0  0  0  1  0  1  0  0  0  0  0  0
    0.5288  -13.6456   15.2260 H   0  0  0  1  0  1  0  0  0  0  0  0
    2.3431  -14.0139   12.9174 H   0  0  0  1  0  1  0  0  0  0  0  0
    2.0253  -12.4017   13.6592 H   0  0  0  1  0  1  0  0  0  0  0  0
    0.7326  -13.2211   12.7498 H   0  0  0  1  0  1  0  0  0  0  0  0
   -2.7369  -10.2745    9.9296 H   0  0  0  1  0  1  0  0  0  0  0  0
   -1.5859   -9.4076    8.8842 H   0  0  0  1  0  1  0  0  0  0  0  0
   -0.2687   -9.5634   11.3436 H   0  0  0  1  0  1  0  0  0  0  0  0
   -1.9648   -9.2497   11.7824 H   0  0  0  1  0  1  0  0  0  0  0  0
   -1.1096   -8.1403   10.6837 H   0  0  0  1  0  1  0  0  0  0  0  0
  1  3  1  0  0  0  0
  1  5  2  0  0  0  0
  1 13  1  0  0  0  0
  2 14  1  0  0  0  0
  2 15  1  0  0  0  0
  2 24  1  0  0  0  0
  3 25  1  0  0  0  0
  4 10  1  0  0  0  0
  5  8  1  0  0  0  0
  5 22  1  0  0  0  0
  6 16  1  0  0  0  0
  6 19  1  0  0  0  0
  6 20  1  0  0  0  0
  7 11  1  0  0  0  0
  7 12  1  0  0  0  0
  8 10  2  0  0  0  0
  8 26  1  0  0  0  0
  9 14  2  0  0  0  0
 10 11  1  0  0  0  0
 11 13  2  0  0  0  0
 12 27  1  0  0  0  0
 12 28  1  0  0  0  0
 12 29  1  0  0  0  0
 13 14  1  0  0  0  0
 15 16  1  0  0  0  0
 15 30  1  0  0  0  0
 15 31  1  0  0  0  0
 16 17  1  0  0  0  0
 16 32  1  0  0  0  0
 17 18  1  0  0  0  0
 17 33  1  0  0  0  0
 17 34  1  0  0  0  0
 18 19  1  0  0  0  0
 18 35  1  0  0  0  0
 18 36  1  0  0  0  0
 19 37  1  0  0  0  0
 19 38  1  0  0  0  0
 20 21  1  0  0  0  0
 20 39  1  0  0  0  0
 20 40  1  0  0  0  0
 21 41  1  0  0  0  0
 21 42  1  0  0  0  0
 21 43  1  0  0  0  0
 22 23  1  0  0  0  0
 22 44  1  0  0  0  0
 22 45  1  0  0  0  0
 23 46  1  0  0  0  0
 23 47  1  0  0  0  0
 23 48  1  0  0  0  0
M  END
> <ConfScore>
-0.715776 

$$$$
3PBL_ETQ_A_1200
  RCSB PDB10041311333D
Coordinates from PDB:3PBL:A:1200 Model:1 without hydrogens
 48 49  0  0  0  0  0  0  0  0999 V2000
    1.8296    3.1413    0.5379 C   0  0  0  1  0  3  0  0  0  0  0  0
    0.8614    5.3133    2.0457 N   0  0  0  1  0  3  0  0  0  0  0  0
    1.0464    2.9344    1.6290 O   0  0  0  1  0  2  0  0  0  0  0  0
    4.3946    3.8141   -3.1058 Cl  0  0  0  1  0  1  0  0  0  0  0  0
    2.2975    2.0361   -0.1834 C   0  0  0  1  0  3  0  0  0  0  0  0
    2.0492    8.0094    2.7515 N   0  0  0  1  0  3  0  0  0  0  0  0
    3.3139    5.8991   -1.3773 O   0  0  0  1  0  2  0  0  0  0  0  0
    3.0772    2.2593   -1.3200 C   0  0  0  1  0  3  0  0  0  0  0  0
    1.8842    6.7920    0.6795 O   0  0  0  1  0  1  0  0  0  0  0  0
    3.4030    3.5550   -1.7129 C   0  0  0  1  0  3  0  0  0  0  0  0
    2.9533    4.6508   -0.9777 C   0  0  0  1  0  3  0  0  0  0  0  0
    4.1179    5.7902   -2.5602 C   0  0  0  1  0  4  0  0  0  0  0  0
    2.1681    4.4505    0.1653 C   0  0  0  1  0  3  0  0  0  0  0  0
    1.6006    5.6347    0.9816 C   0  0  0  1  0  3  0  0  0  0  0  0
    0.2607    6.3121    2.9521 C   0  0  0  1  0  4  0  0  0  0  0  0
    1.3383    7.1289    3.6742 C   0  0  0  1  0  4  0  0  0  0  0  0
    2.4851    6.2293    4.1782 C   0  0  0  1  0  4  0  0  0  0  0  0
    3.6228    7.2362    4.3499 C   0  0  0  1  0  4  0  0  0  0  0  0
    3.3296    8.3741    3.3695 C   0  0  0  1  0  4  0  0  0  0  0  0
    1.2721    9.1512    2.3090 C   0  0  0  1  0  4  0  0  0  0  0  0
    0.2635    9.5268    3.3847 C   0  0  0  1  0  4  0  0  0  0  0  0
    1.9528    0.5728    0.1422 C   0  0  0  1  0  4  0  0  0  0  0  0
    0.4536    0.2818    0.0452 C   0  0  0  1  0  4  0  0  0  0  0  0
    0.6955    4.2768    2.2528 H   0  0  0  1  0  1  0  0  0  0  0  0
    1.6247    3.0347    2.4996 H   0  0  0  1  0  1  0  0  0  0  0  0
    3.4340    1.4116   -1.9050 H   0  0  0  1  0  1  0  0  0  0  0  0
    5.1725    5.8383   -2.2891 H   0  0  0  1  0  1  0  0  0  0  0  0
    3.8795    6.6099   -3.2380 H   0  0  0  1  0  1  0  0  0  0  0  0
    3.9125    4.8396   -3.0525 H   0  0  0  1  0  1  0  0  0  0  0  0
   -0.3501    5.7967    3.6933 H   0  0  0  1  0  1  0  0  0  0  0  0
   -0.3662    6.9877    2.3702 H   0  0  0  1  0  1  0  0  0  0  0  0
    0.8007    7.6518    4.4652 H   0  0  0  1  0  1  0  0  0  0  0  0
    2.7402    5.4642    3.4450 H   0  0  0  1  0  1  0  0  0  0  0  0
    2.2295    5.7546    5.1255 H   0  0  0  1  0  1  0  0  0  0  0  0
    4.5796    6.7703    4.1142 H   0  0  0  1  0  1  0  0  0  0  0  0
    3.6438    7.6132    5.3724 H   0  0  0  1  0  1  0  0  0  0  0  0
    3.2454    9.3242    3.8970 H   0  0  0  1  0  1  0  0  0  0  0  0
    4.1142    8.4445    2.6161 H   0  0  0  1  0  1  0  0  0  0  0  0
    0.7446    8.8971    1.3896 H   0  0  0  1  0  1  0  0  0  0  0  0
    1.9380    9.9944    2.1253 H   0  0  0  1  0  1  0  0  0  0  0  0
    0.7839    9.7004    4.3266 H   0  0  0  1  0  1  0  0  0  0  0  0
   -0.4530    8.7151    3.5099 H   0  0  0  1  0  1  0  0  0  0  0  0
   -0.2627   10.4342    3.0881 H   0  0  0  1  0  1  0  0  0  0  0  0
    2.2851    0.3543    1.1571 H   0  0  0  1  0  1  0  0  0  0  0  0
    2.4792   -0.0735   -0.5601 H   0  0  0  1  0  1  0  0  0  0  0  0
    0.0029    0.9385   -0.6989 H   0  0  0  1  0  1  0  0  0  0  0  0
   -0.0136    0.4565    1.0143 H   0  0  0  1  0  1  0  0  0  0  0  0
    0.3037   -0.7570   -0.2490 H   0  0  0  1  0  1  0  0  0  0  0  0
  1  3  1  0  0  0  0
  1  5  2  0  0  0  0
  1 13  1  0  0  0  0
  2 14  1  0  0  0  0
  2 15  1  0  0  0  0
  2 24  1  0  0  0  0
  3 25  1  0  0  0  0
  4 10  1  0  0  0  0
  5  8  1  0  0  0  0
  5 22  1  0  0  0  0
  6 16  1  0  0  0  0
  6 19  1  0  0  0  0
  6 20  1  0  0  0  0
  7 11  1  0  0  0  0
  7 12  1  0  0  0  0
  8 10  2  0  0  0  0
  8 26  1  0  0  0  0
  9 14  2  0  0  0  0
 10 11  1  0  0  0  0
 11 13  2  0  0  0  0
 12 27  1  0  0  0  0
 12 28  1  0  0  0  0
 12 29  1  0  0  0  0
 13 14  1  0  0  0  0
 15 16  1  0  0  0  0
 15 30  1  0  0  0  0
 15 31  1  0  0  0  0
 16 17  1  0  0  0  0
 16 32  1  0  0  0  0
 17 18  1  0  0  0  0
 17 33  1  0  0  0  0
 17 34  1  0  0  0  0
 18 19  1  0  0  0  0
 18 35  1  0  0  0  0
 18 36  1  0  0  0  0
 19 37  1  0  0  0  0
 19 38  1  0  0  0  0
 20 21  1  0  0  0  0
 20 39  1  0  0  0  0
 20 40  1  0  0  0  0
 21 41  1  0  0  0  0
 21 42  1  0  0  0  0
 21 43  1  0  0  0  0
 22 23  1  0  0  0  0
 22 44  1  0  0  0  0
 22 45  1  0  0  0  0
 23 46  1  0  0  0  0
 23 47  1  0  0  0  0
 23 48  1  0  0  0  0
M  END
> <ConfScore>
-0.478763 

$$$$
3PBL_ETQ_A_1200
  RCSB PDB10041311333D
Coordinates from PDB:3PBL:A:1200 Model:1 without hydrogens
 48 49  0  0  0  0  0  0  0  0999 V2000
    1.8296    3.1413    0.5379 C   0  0  0  1  0  3  0  0  0  0  0  0
    0.8614    5.3133    2.0457 N   0  0  0  1  0  3  0  0  0  0  0  0
    1.0464    2.9344    1.6290 O   0  0  0  1  0  2  0  0  0  0  0  0
    4.3946    3.8141   -3.1058 Cl  0  0  0  1  0  1  0  0  0  0  0  0
    2.2975    2.0361   -0.1834 C   0  0  0  1  0  3  0  0  0  0  0  0
    2.0492    8.0094    2.7515 N   0  0  0  1  0  3  0  0  0  0  0  0
    3.3139    5.8991   -1.3773 O   0  0  0  1  0  2  0  0  0  0  0  0
    3.0772    2.2593   -1.3200 C   0  0  0  1  0  3  0  0  0  0  0  0
    1.8842    6.7920    0.6795 O   0  0  0  1  0  1  0  0  0  0  0  0
    3.4030    3.5550   -1.7129 C   0  0  0  1  0  3  0  0  0  0  0  0
    2.9533    4.6508   -0.9777 C   0  0  0  1  0  3  0  0  0  0  0  0
    4.1179    5.7902   -2.5602 C   0  0  0  1  0  4  0  0  0  0  0  0
    2.1681    4.4505    0.1653 C   0  0  0  1  0  3  0  0  0  0  0  0
    1.6006    5.6347    0.9816 C   0  0  0  1  0  3  0  0  0  0  0  0
    0.2607    6.3121    2.9521 C   0  0  0  1  0  4  0  0  0  0  0  0
    1.3383    7.1289    3.6742 C   0  0  0  1  0  4  0  0  0  0  0  0
    2.4851    6.2293    4.1782 C   0  0  0  1  0  4  0  0  0  0  0  0
    3.6228    7.2362    4.3499 C   0  0  0  1  0  4  0  0  0  0  0  0
    3.3296    8.3741    3.3695 C   0  0  0  1  0  4  0  0  0  0  0  0
    1.2721    9.1512    2.3090 C   0  0  0  1  0  4  0  0  0  0  0  0
    0.2635    9.5268    3.3847 C   0  0  0  1  0  4  0  0  0  0  0  0
    1.9528    0.5728    0.1422 C   0  0  0  1  0  4  0  0  0  0  0  0
    2.4932    0.1255    1.5023 C   0  0  0  1  0  4  0  0  0  0  0  0
    0.6955    4.2768    2.2528 H   0  0  0  1  0  1  0  0  0  0  0  0
    1.6247    3.0347    2.4996 H   0  0  0  1  0  1  0  0  0  0  0  0
    3.4340    1.4116   -1.9050 H   0  0  0  1  0  1  0  0  0  0  0  0
    5.1725    5.8383   -2.2891 H   0  0  0  1  0  1  0  0  0  0  0  0
    3.8795    6.6099   -3.2380 H   0  0  0  1  0  1  0  0  0  0  0  0
    3.9125    4.8396   -3.0525 H   0  0  0  1  0  1  0  0  0  0  0  0
   -0.3501    5.7967    3.6933 H   0  0  0  1  0  1  0  0  0  0  0  0
   -0.3662    6.9877    2.3702 H   0  0  0  1  0  1  0  0  0  0  0  0
    0.8007    7.6518    4.4652 H   0  0  0  1  0  1  0  0  0  0  0  0
    2.7402    5.4642    3.4450 H   0  0  0  1  0  1  0  0  0  0  0  0
    2.2295    5.7546    5.1255 H   0  0  0  1  0  1  0  0  0  0  0  0
    4.5796    6.7703    4.1142 H   0  0  0  1  0  1  0  0  0  0  0  0
    3.6438    7.6132    5.3724 H   0  0  0  1  0  1  0  0  0  0  0  0
    3.2454    9.3242    3.8970 H   0  0  0  1  0  1  0  0  0  0  0  0
    4.1142    8.4445    2.6161 H   0  0  0  1  0  1  0  0  0  0  0  0
    0.7446    8.8971    1.3896 H   0  0  0  1  0  1  0  0  0  0  0  0
    1.9380    9.9944    2.1253 H   0  0  0  1  0  1  0  0  0  0  0  0
    0.7839    9.7004    4.3266 H   0  0  0  1  0  1  0  0  0  0  0  0
   -0.4530    8.7151    3.5099 H   0  0  0  1  0  1  0  0  0  0  0  0
   -0.2627   10.4342    3.0881 H   0  0  0  1  0  1  0  0  0  0  0  0
    2.3814   -0.0660   -0.6300 H   0  0  0  1  0  1  0  0  0  0  0  0
    0.8684    0.4629    0.1450 H   0  0  0  1  0  1  0  0  0  0  0  0
    3.3100    0.7816    1.8029 H   0  0  0  1  0  1  0  0  0  0  0  0
    2.8584   -0.8988    1.4288 H   0  0  0  1  0  1  0  0  0  0  0  0
    1.6959    0.1752    2.2439 H   0  0  0  1  0  1  0  0  0  0  0  0
  1  3  1  0  0  0  0
  1  5  2  0  0  0  0
  1 13  1  0  0  0  0
  2 14  1  0  0  0  0
  2 15  1  0  0  0  0
  2 24  1  0  0  0  0
  3 25  1  0  0  0  0
  4 10  1  0  0  0  0
  5  8  1  0  0  0  0
  5 22  1  0  0  0  0
  6 16  1  0  0  0  0
  6 19  1  0  0  0  0
  6 20  1  0  0  0  0
  7 11  1  0  0  0  0
  7 12  1  0  0  0  0
  8 10  2  0  0  0  0
  8 26  1  0  0  0  0
  9 14  2  0  0  0  0
 10 11  1  0  0  0  0
 11 13  2  0  0  0  0
 12 27  1  0  0  0  0
 12 28  1  0  0  0  0
 12 29  1  0  0  0  0
 13 14  1  0  0  0  0
 15 16  1  0  0  0  0
 15 30  1  0  0  0  0
 15 31  1  0  0  0  0
 16 17  1  0  0  0  0
 16 32  1  0  0  0  0
 17 18  1  0  0  0  0
 17 33  1  0  0  0  0
 17 34  1  0  0  0  0
 18 19  1  0  0  0  0
 18 35  1  0  0  0  0
 18 36  1  0  0  0  0
 19 37  1  0  0  0  0
 19 38  1  0  0  0  0
 20 21  1  0  0  0  0
 20 39  1  0  0  0  0
 20 40  1  0  0  0  0
 21 41  1  0  0  0  0
 21 42  1  0  0  0  0
 21 43  1  0  0  0  0
 22 23  1  0  0  0  0
 22 44  1  0  0  0  0
 22 45  1  0  0  0  0
 23 46  1  0  0  0  0
 23 47  1  0  0  0  0
 23 48  1  0  0  0  0
M  END
> <ConfScore>
-0.463321 

$$$$
3PBL_ETQ_A_1200
  RCSB PDB10041311333D
Coordinates from PDB:3PBL:A:1200 Model:1 without hydrogens
 48 49  0  0  0  0  0  0  0  0999 V2000
    1.8296    3.1413    0.5379 C   0  0  0  1  0  3  0  0  0  0  0  0
    0.8614    5.3133    2.0457 N   0  0  0  1  0  3  0  0  0  0  0  0
    1.0464    2.9344    1.6290 O   0  0  0  1  0  2  0  0  0  0  0  0
    4.3946    3.8141   -3.1058 Cl  0  0  0  1  0  1  0  0  0  0  0  0
    2.2975    2.0361   -0.1834 C   0  0  0  1  0  3  0  0  0  0  0  0
    2.0492    8.0094    2.7515 N   0  0  0  1  0  3  0  0  0  0  0  0
    3.3139    5.8991   -1.3773 O   0  0  0  1  0  2  0  0  0  0  0  0
    3.0772    2.2593   -1.3200 C   0  0  0  1  0  3  0  0  0  0  0  0
    1.8842    6.7920    0.6795 O   0  0  0  1  0  1  0  0  0  0  0  0
    3.4030    3.5550   -1.7129 C   0  0  0  1  0  3  0  0  0  0  0  0
    2.9533    4.6508   -0.9777 C   0  0  0  1  0  3  0  0  0  0  0  0
    4.1179    5.7902   -2.5602 C   0  0  0  1  0  4  0  0  0  0  0  0
    2.1681    4.4505    0.1653 C   0  0  0  1  0  3  0  0  0  0  0  0
    1.6006    5.6347    0.9816 C   0  0  0  1  0  3  0  0  0  0  0  0
    0.2607    6.3121    2.9521 C   0  0  0  1  0  4  0  0  0  0  0  0
    1.3383    7.1289    3.6742 C   0  0  0  1  0  4  0  0  0  0  0  0
    2.4851    6.2293    4.1782 C   0  0  0  1  0  4  0  0  0  0  0  0
    3.6228    7.2362    4.3499 C   0  0  0  1  0  4  0  0  0  0  0  0
    3.3296    8.3741    3.3695 C   0  0  0  1  0  4  0  0  0  0  0  0
    1.2721    9.1512    2.3090 C   0  0  0  1  0  4  0  0  0  0  0  0
    0.2635    9.5268    3.3847 C   0  0  0  1  0  4  0  0  0  0  0  0
    1.9528    0.5728    0.1422 C   0  0  0  1  0  4  0  0  0  0  0  0
    2.5399   -0.4134   -0.8700 C   0  0  0  1  0  4  0  0  0  0  0  0
    0.6955    4.2768    2.2528 H   0  0  0  1  0  1  0  0  0  0  0  0
    1.6247    3.0347    2.4996 H   0  0  0  1  0  1  0  0  0  0  0  0
    3.4340    1.4116   -1.9050 H   0  0  0  1  0  1  0  0  0  0  0  0
    5.1725    5.8383   -2.2891 H   0  0  0  1  0  1  0  0  0  0  0  0
    3.8795    6.6099   -3.2380 H   0  0  0  1  0  1  0  0  0  0  0  0
    3.9125    4.8396   -3.0525 H   0  0  0  1  0  1  0  0  0  0  0  0
   -0.3501    5.7967    3.6933 H   0  0  0  1  0  1  0  0  0  0  0  0
   -0.3662    6.9877    2.3702 H   0  0  0  1  0  1  0  0  0  0  0  0
    0.8007    7.6518    4.4652 H   0  0  0  1  0  1  0  0  0  0  0  0
    2.7402    5.4642    3.4450 H   0  0  0  1  0  1  0  0  0  0  0  0
    2.2295    5.7546    5.1255 H   0  0  0  1  0  1  0  0  0  0  0  0
    4.5796    6.7703    4.1142 H   0  0  0  1  0  1  0  0  0  0  0  0
    3.6438    7.6132    5.3724 H   0  0  0  1  0  1  0  0  0  0  0  0
    3.2454    9.3242    3.8970 H   0  0  0  1  0  1  0  0  0  0  0  0
    4.1142    8.4445    2.6161 H   0  0  0  1  0  1  0  0  0  0  0  0
    0.7446    8.8971    1.3896 H   0  0  0  1  0  1  0  0  0  0  0  0
    1.9380    9.9944    2.1253 H   0  0  0  1  0  1  0  0  0  0  0  0
    0.7839    9.7004    4.3266 H   0  0  0  1  0  1  0  0  0  0  0  0
   -0.4530    8.7151    3.5099 H   0  0  0  1  0  1  0  0  0  0  0  0
   -0.2627   10.4342    3.0881 H   0  0  0  1  0  1  0  0  0  0  0  0
    0.8684    0.4632    0.1465 H   0  0  0  1  0  1  0  0  0  0  0  0
    2.3467    0.3338    1.1300 H   0  0  0  1  0  1  0  0  0  0  0  0
    3.2629   -1.0591   -0.3716 H   0  0  0  1  0  1  0  0  0  0  0  0
    3.0358    0.1382   -1.6687 H   0  0  0  1  0  1  0  0  0  0  0  0
    1.7392   -1.0216   -1.2907 H   0  0  0  1  0  1  0  0  0  0  0  0
  1  3  1  0  0  0  0
  1  5  2  0  0  0  0
  1 13  1  0  0  0  0
  2 14  1  0  0  0  0
  2 15  1  0  0  0  0
  2 24  1  0  0  0  0
  3 25  1  0  0  0  0
  4 10  1  0  0  0  0
  5  8  1  0  0  0  0
  5 22  1  0  0  0  0
  6 16  1  0  0  0  0
  6 19  1  0  0  0  0
  6 20  1  0  0  0  0
  7 11  1  0  0  0  0
  7 12  1  0  0  0  0
  8 10  2  0  0  0  0
  8 26  1  0  0  0  0
  9 14  2  0  0  0  0
 10 11  1  0  0  0  0
 11 13  2  0  0  0  0
 12 27  1  0  0  0  0
 12 28  1  0  0  0  0
 12 29  1  0  0  0  0
 13 14  1  0  0  0  0
 15 16  1  0  0  0  0
 15 30  1  0  0  0  0
 15 31  1  0  0  0  0
 16 17  1  0  0  0  0
 16 32  1  0  0  0  0
 17 18  1  0  0  0  0
 17 33  1  0  0  0  0
 17 34  1  0  0  0  0
 18 19  1  0  0  0  0
 18 35  1  0  0  0  0
 18 36  1  0  0  0  0
 19 37  1  0  0  0  0
 19 38  1  0  0  0  0
 20 21  1  0  0  0  0
 20 39  1  0  0  0  0
 20 40  1  0  0  0  0
 21 41  1  0  0  0  0
 21 42  1  0  0  0  0
 21 43  1  0  0  0  0
 22 23  1  0  0  0  0
 22 44  1  0  0  0  0
 22 45  1  0  0  0  0
 23 46  1  0  0  0  0
 23 47  1  0  0  0  0
 23 48  1  0  0  0  0
M  END
> <ConfScore>
-0.443892 

$$$$
3PBL_ETQ_A_1200
  RCSB PDB10041311333D
Coordinates from PDB:3PBL:A:1200 Model:1 without hydrogens
 48 49  0  0  0  0  0  0  0  0999 V2000
    1.8296    3.1413    0.5379 C   0  0  0  1  0  3  0  0  0  0  0  0
    1.8555    6.8540    0.5018 N   0  0  0  1  0  3  0  0  0  0  0  0
    1.0464    2.9344    1.6290 O   0  0  0  1  0  2  0  0  0  0  0  0
    4.3946    3.8141   -3.1058 Cl  0  0  0  1  0  1  0  0  0  0  0  0
    2.2975    2.0361   -0.1834 C   0  0  0  1  0  3  0  0  0  0  0  0
   -0.7516    7.1780    2.0103 N   0  0  0  1  0  3  0  0  0  0  0  0
    3.3139    5.8991   -1.3773 O   0  0  0  1  0  2  0  0  0  0  0  0
    3.0772    2.2593   -1.3200 C   0  0  0  1  0  3  0  0  0  0  0  0
    0.9055    5.4302    1.9747 O   0  0  0  1  0  1  0  0  0  0  0  0
    3.4030    3.5550   -1.7129 C   0  0  0  1  0  3  0  0  0  0  0  0
    2.9533    4.6508   -0.9777 C   0  0  0  1  0  3  0  0  0  0  0  0
    4.1179    5.7902   -2.5602 C   0  0  0  1  0  4  0  0  0  0  0  0
    2.1681    4.4505    0.1653 C   0  0  0  1  0  3  0  0  0  0  0  0
    1.6006    5.6347    0.9816 C   0  0  0  1  0  3  0  0  0  0  0  0
    1.3725    8.0966    1.1363 C   0  0  0  1  0  4  0  0  0  0  0  0
   -0.1584    8.1720    1.1203 C   0  0  0  1  0  4  0  0  0  0  0  0
   -0.7306    7.7365   -0.2440 C   0  0  0  1  0  4  0  0  0  0  0  0
   -2.1712    7.3755    0.1196 C   0  0  0  1  0  4  0  0  0  0  0  0
   -2.1447    6.9732    1.5959 C   0  0  0  1  0  4  0  0  0  0  0  0
   -0.6046    7.4860    3.4199 C   0  0  0  1  0  4  0  0  0  0  0  0
   -0.5301    8.9945    3.6052 C   0  0  0  1  0  4  0  0  0  0  0  0
    1.9528    0.5728    0.1422 C   0  0  0  1  0  4  0  0  0  0  0  0
    2.4799    0.1301    1.5090 C   0  0  0  1  0  4  0  0  0  0  0  0
    2.4409    6.9351   -0.3902 H   0  0  0  1  0  1  0  0  0  0  0  0
    1.6247    3.0347    2.4996 H   0  0  0  1  0  1  0  0  0  0  0  0
    3.4340    1.4116   -1.9050 H   0  0  0  1  0  1  0  0  0  0  0  0
    5.1725    5.8383   -2.2891 H   0  0  0  1  0  1  0  0  0  0  0  0
    3.8795    6.6099   -3.2380 H   0  0  0  1  0  1  0  0  0  0  0  0
    3.9125    4.8396   -3.0525 H   0  0  0  1  0  1  0  0  0  0  0  0
    1.7757    8.9519    0.5940 H   0  0  0  1  0  1  0  0  0  0  0  0
    1.7185    8.1250    2.1696 H   0  0  0  1  0  1  0  0  0  0  0  0
   -0.3841    9.2038    1.3901 H   0  0  0  1  0  1  0  0  0  0  0  0
   -0.1944    6.8750   -0.6419 H   0  0  0  1  0  1  0  0  0  0  0  0
   -0.6966    8.5518   -0.9666 H   0  0  0  1  0  1  0  0  0  0  0  0
   -2.5195    6.5442   -0.4933 H   0  0  0  1  0  1  0  0  0  0  0  0
   -2.8255    8.2349   -0.0270 H   0  0  0  1  0  1  0  0  0  0  0  0
   -2.8161    7.6039    2.1786 H   0  0  0  1  0  1  0  0  0  0  0  0
   -2.4319    5.9285    1.7151 H   0  0  0  1  0  1  0  0  0  0  0  0
    0.3094    7.0282    3.7982 H   0  0  0  1  0  1  0  0  0  0  0  0
   -1.4615    7.0947    3.9683 H   0  0  0  1  0  1  0  0  0  0  0  0
    0.0633    9.2235    4.4904 H   0  0  0  1  0  1  0  0  0  0  0  0
   -1.5362    9.3952    3.7289 H   0  0  0  1  0  1  0  0  0  0  0  0
   -0.0641    9.4453    2.7290 H   0  0  0  1  0  1  0  0  0  0  0  0
    2.3909   -0.0669   -0.6239 H   0  0  0  1  0  1  0  0  0  0  0  0
    0.8687    0.4603    0.1339 H   0  0  0  1  0  1  0  0  0  0  0  0
    3.2960    0.7853    1.8138 H   0  0  0  1  0  1  0  0  0  0  0  0
    2.8429   -0.8955    1.4433 H   0  0  0  1  0  1  0  0  0  0  0  0
    1.6763    0.1854    2.2433 H   0  0  0  1  0  1  0  0  0  0  0  0
  1  3  1  0  0  0  0
  1  5  2  0  0  0  0
  1 13  1  0  0  0  0
  2 14  1  0  0  0  0
  2 15  1  0  0  0  0
  2 24  1  0  0  0  0
  3 25  1  0  0  0  0
  4 10  1  0  0  0  0
  5  8  1  0  0  0  0
  5 22  1  0  0  0  0
  6 16  1  0  0  0  0
  6 19  1  0  0  0  0
  6 20  1  0  0  0  0
  7 11  1  0  0  0  0
  7 12  1  0  0  0  0
  8 10  2  0  0  0  0
  8 26  1  0  0  0  0
  9 14  2  0  0  0  0
 10 11  1  0  0  0  0
 11 13  2  0  0  0  0
 12 27  1  0  0  0  0
 12 28  1  0  0  0  0
 12 29  1  0  0  0  0
 13 14  1  0  0  0  0
 15 16  1  0  0  0  0
 15 30  1  0  0  0  0
 15 31  1  0  0  0  0
 16 17  1  0  0  0  0
 16 32  1  0  0  0  0
 17 18  1  0  0  0  0
 17 33  1  0  0  0  0
 17 34  1  0  0  0  0
 18 19  1  0  0  0  0
 18 35  1  0  0  0  0
 18 36  1  0  0  0  0
 19 37  1  0  0  0  0
 19 38  1  0  0  0  0
 20 21  1  0  0  0  0
 20 39  1  0  0  0  0
 20 40  1  0  0  0  0
 21 41  1  0  0  0  0
 21 42  1  0  0  0  0
 21 43  1  0  0  0  0
 22 23  1  0  0  0  0
 22 44  1  0  0  0  0
 22 45  1  0  0  0  0
 23 46  1  0  0  0  0
 23 47  1  0  0  0  0
 23 48  1  0  0  0  0
M  END
> <ConfScore>
-0.68763 

$$$$
3PBL_ETQ_A_1200
  RCSB PDB10041311333D
Coordinates from PDB:3PBL:A:1200 Model:1 without hydrogens
 48 49  0  0  0  0  0  0  0  0999 V2000
    1.8296    3.1413    0.5379 C   0  0  0  1  0  3  0  0  0  0  0  0
    0.2870    5.6089    1.2176 N   0  0  0  1  0  3  0  0  0  0  0  0
    1.0464    2.9344    1.6290 O   0  0  0  1  0  2  0  0  0  0  0  0
    4.3946    3.8141   -3.1058 Cl  0  0  0  1  0  1  0  0  0  0  0  0
    2.2975    2.0361   -0.1834 C   0  0  0  1  0  3  0  0  0  0  0  0
    1.4424    7.0790    3.6011 N   0  0  0  1  0  3  0  0  0  0  0  0
    3.3139    5.8991   -1.3773 O   0  0  0  1  0  2  0  0  0  0  0  0
    3.0772    2.2593   -1.3200 C   0  0  0  1  0  3  0  0  0  0  0  0
    2.3510    6.5003    1.4273 O   0  0  0  1  0  1  0  0  0  0  0  0
    3.4030    3.5550   -1.7129 C   0  0  0  1  0  3  0  0  0  0  0  0
    2.9533    4.6508   -0.9777 C   0  0  0  1  0  3  0  0  0  0  0  0
    4.1179    5.7902   -2.5602 C   0  0  0  1  0  4  0  0  0  0  0  0
    2.1681    4.4505    0.1653 C   0  0  0  1  0  3  0  0  0  0  0  0
    1.6006    5.6347    0.9816 C   0  0  0  1  0  3  0  0  0  0  0  0
   -0.4145    6.6210    2.0321 C   0  0  0  1  0  4  0  0  0  0  0  0
    0.0685    6.5982    3.4868 C   0  0  0  1  0  4  0  0  0  0  0  0
    0.2082    5.1550    4.0123 C   0  0  0  1  0  4  0  0  0  0  0  0
    1.1637    5.3405    5.1914 C   0  0  0  1  0  4  0  0  0  0  0  0
    1.9894    6.5888    4.8719 C   0  0  0  1  0  4  0  0  0  0  0  0
    1.5827    8.5115    3.4228 C   0  0  0  1  0  4  0  0  0  0  0  0
    0.3002    9.2055    3.8573 C   0  0  0  1  0  4  0  0  0  0  0  0
    1.9528    0.5728    0.1422 C   0  0  0  1  0  4  0  0  0  0  0  0
    2.4799    0.1301    1.5090 C   0  0  0  1  0  4  0  0  0  0  0  0
   -0.2882    4.8123    0.7939 H   0  0  0  1  0  1  0  0  0  0  0  0
    1.6247    3.0347    2.4996 H   0  0  0  1  0  1  0  0  0  0  0  0
    3.4340    1.4116   -1.9050 H   0  0  0  1  0  1  0  0  0  0  0  0
    5.1725    5.8383   -2.2891 H   0  0  0  1  0  1  0  0  0  0  0  0
    3.8795    6.6099   -3.2380 H   0  0  0  1  0  1  0  0  0  0  0  0
    3.9125    4.8396   -3.0525 H   0  0  0  1  0  1  0  0  0  0  0  0
   -1.4846    6.4147    2.0102 H   0  0  0  1  0  1  0  0  0  0  0  0
   -0.2256    7.6085    1.6110 H   0  0  0  1  0  1  0  0  0  0  0  0
   -0.6617    7.2010    4.0267 H   0  0  0  1  0  1  0  0  0  0  0  0
    0.6354    4.4971    3.2555 H   0  0  0  1  0  1  0  0  0  0  0  0
   -0.7526    4.7575    4.3395 H   0  0  0  1  0  1  0  0  0  0  0  0
    1.8142    4.4717    5.2920 H   0  0  0  1  0  1  0  0  0  0  0  0
    0.6025    5.4837    6.1148 H   0  0  0  1  0  1  0  0  0  0  0  0
    1.8731    7.3378    5.6552 H   0  0  0  1  0  1  0  0  0  0  0  0
    3.0441    6.3353    4.7645 H   0  0  0  1  0  1  0  0  0  0  0  0
    1.7756    8.7294    2.3724 H   0  0  0  1  0  1  0  0  0  0  0  0
    2.4141    8.8729    4.0280 H   0  0  0  1  0  1  0  0  0  0  0  0
    0.2423    9.2147    4.9458 H   0  0  0  1  0  1  0  0  0  0  0  0
   -0.5580    8.6690    3.4526 H   0  0  0  1  0  1  0  0  0  0  0  0
    0.2976   10.2299    3.4849 H   0  0  0  1  0  1  0  0  0  0  0  0
    2.3909   -0.0669   -0.6239 H   0  0  0  1  0  1  0  0  0  0  0  0
    0.8687    0.4603    0.1339 H   0  0  0  1  0  1  0  0  0  0  0  0
    3.2960    0.7853    1.8138 H   0  0  0  1  0  1  0  0  0  0  0  0
    2.8429   -0.8955    1.4433 H   0  0  0  1  0  1  0  0  0  0  0  0
    1.6763    0.1854    2.2433 H   0  0  0  1  0  1  0  0  0  0  0  0
  1  3  1  0  0  0  0
  1  5  2  0  0  0  0
  1 13  1  0  0  0  0
  2 14  1  0  0  0  0
  2 15  1  0  0  0  0
  2 24  1  0  0  0  0
  3 25  1  0  0  0  0
  4 10  1  0  0  0  0
  5  8  1  0  0  0  0
  5 22  1  0  0  0  0
  6 16  1  0  0  0  0
  6 19  1  0  0  0  0
  6 20  1  0  0  0  0
  7 11  1  0  0  0  0
  7 12  1  0  0  0  0
  8 10  2  0  0  0  0
  8 26  1  0  0  0  0
  9 14  2  0  0  0  0
 10 11  1  0  0  0  0
 11 13  2  0  0  0  0
 12 27  1  0  0  0  0
 12 28  1  0  0  0  0
 12 29  1  0  0  0  0
 13 14  1  0  0  0  0
 15 16  1  0  0  0  0
 15 30  1  0  0  0  0
 15 31  1  0  0  0  0
 16 17  1  0  0  0  0
 16 32  1  0  0  0  0
 17 18  1  0  0  0  0
 17 33  1  0  0  0  0
 17 34  1  0  0  0  0
 18 19  1  0  0  0  0
 18 35  1  0  0  0  0
 18 36  1  0  0  0  0
 19 37  1  0  0  0  0
 19 38  1  0  0  0  0
 20 21  1  0  0  0  0
 20 39  1  0  0  0  0
 20 40  1  0  0  0  0
 21 41  1  0  0  0  0
 21 42  1  0  0  0  0
 21 43  1  0  0  0  0
 22 23  1  0  0  0  0
 22 44  1  0  0  0  0
 22 45  1  0  0  0  0
 23 46  1  0  0  0  0
 23 47  1  0  0  0  0
 23 48  1  0  0  0  0
M  END
> <ConfScore>
-0.284052 

$$$$
3PBL_ETQ_A_1200
  RCSB PDB10041311333D
Coordinates from PDB:3PBL:A:1200 Model:1 without hydrogens
 48 49  0  0  0  0  0  0  0  0999 V2000
   -0.8080  -12.3360   10.5520 C   0  0  0  1  0  3  0  0  0  0  0  0
    0.9139  -15.5574   11.2126 N   0  0  0  1  0  3  0  0  0  0  0  0
   -1.5290  -12.2300   11.6990 O   0  0  0  1  0  2  0  0  0  0  0  0
    1.6090  -12.6560    6.7620 Cl  0  0  0  1  0  1  0  0  0  0  0  0
   -0.8770  -11.3050    9.6070 C   0  0  0  1  0  3  0  0  0  0  0  0
   -0.3335  -18.3370   10.9969 N   0  0  0  1  0  3  0  0  0  0  0  0
    1.5050  -14.6500    8.8870 O   0  0  0  1  0  2  0  0  0  0  0  0
   -0.1100  -11.4090    8.4450 C   0  0  0  1  0  3  0  0  0  0  0  0
   -0.6511  -14.4803   12.4331 O   0  0  0  1  0  1  0  0  0  0  0  0
    0.6880  -12.5280    8.2200 C   0  0  0  1  0  3  0  0  0  0  0  0
    0.7350  -13.5620    9.1540 C   0  0  0  1  0  3  0  0  0  0  0  0
    2.1512  -14.4580    7.6209 C   0  0  0  1  0  4  0  0  0  0  0  0
   -0.0250  -13.4780   10.3280 C   0  0  0  1  0  3  0  0  0  0  0  0
    0.0360  -14.5730   11.4180 C   0  0  0  1  0  3  0  0  0  0  0  0
    1.1022  -16.6884   12.1429 C   0  0  0  1  0  4  0  0  0  0  0  0
   -0.1620  -17.5503   12.2355 C   0  0  0  1  0  4  0  0  0  0  0  0
   -0.0076  -18.5602   13.3703 C   0  0  0  1  0  4  0  0  0  0  0  0
    0.6063  -19.7597   12.6675 C   0  0  0  1  0  4  0  0  0  0  0  0
   -0.1368  -19.7596   11.3402 C   0  0  0  1  0  4  0  0  0  0  0  0
   -1.6967  -18.1296   10.4900 C   0  0  0  1  0  4  0  0  0  0  0  0
   -1.7481  -18.3915    8.9919 C   0  0  0  1  0  4  0  0  0  0  0  0
   -1.6890  -10.0110    9.7860 C   0  0  0  1  0  4  0  0  0  0  0  0
   -1.2246   -9.1814   10.9852 C   0  0  0  1  0  4  0  0  0  0  0  0
    1.5130  -15.5251   10.3266 H   0  0  0  1  0  1  0  0  0  0  0  0
   -0.8760  -12.1546   12.5178 H   0  0  0  1  0  1  0  0  0  0  0  0
   -0.1360  -10.6071    7.7072 H   0  0  0  1  0  1  0  0  0  0  0  0
    3.1987  -14.7490    7.6992 H   0  0  0  1  0  1  0  0  0  0  0  0
    2.0865  -13.4080    7.3357 H   0  0  0  1  0  1  0  0  0  0  0  0
    1.6596  -15.0711    6.8656 H   0  0  0  1  0  1  0  0  0  0  0  0
    1.3389  -16.2980   13.1327 H   0  0  0  1  0  1  0  0  0  0  0  0
    1.9275  -17.3058   11.7884 H   0  0  0  1  0  1  0  0  0  0  0  0
   -1.0118  -16.8875   12.3989 H   0  0  0  1  0  1  0  0  0  0  0  0
   -0.9742  -18.8124   13.8063 H   0  0  0  1  0  1  0  0  0  0  0  0
    0.6542  -18.1793   14.1481 H   0  0  0  1  0  1  0  0  0  0  0  0
    0.4253  -20.6799   13.2229 H   0  0  0  1  0  1  0  0  0  0  0  0
    1.6784  -19.6277   12.5215 H   0  0  0  1  0  1  0  0  0  0  0  0
    0.4552  -20.2580   10.5725 H   0  0  0  1  0  1  0  0  0  0  0  0
   -1.0982  -20.2630   11.4422 H   0  0  0  1  0  1  0  0  0  0  0  0
   -2.0006  -17.1013   10.6858 H   0  0  0  1  0  1  0  0  0  0  0  0
   -2.3771  -18.8131   10.9980 H   0  0  0  1  0  1  0  0  0  0  0  0
   -0.9099  -19.0263    8.7046 H   0  0  0  1  0  1  0  0  0  0  0  0
   -1.6869  -17.4446    8.4555 H   0  0  0  1  0  1  0  0  0  0  0  0
   -2.6842  -18.8912    8.7426 H   0  0  0  1  0  1  0  0  0  0  0  0
   -2.7369  -10.2745    9.9296 H   0  0  0  1  0  1  0  0  0  0  0  0
   -1.5859   -9.4076    8.8842 H   0  0  0  1  0  1  0  0  0  0  0  0
   -0.2687   -9.5634   11.3436 H   0  0  0  1  0  1  0  0  0  0  0  0
   -1.9648   -9.2497   11.7824 H   0  0  0  1  0  1  0  0  0  0  0  0
   -1.1096   -8.1403   10.6837 H   0  0  0  1  0  1  0  0  0  0  0  0
  1  3  1  0  0  0  0
  1  5  2  0  0  0  0
  1 13  1  0  0  0  0
  2 14  1  0  0  0  0
  2 15  1  0  0  0  0
  2 24  1  0  0  0  0
  3 25  1  0  0  0  0
  4 10  1  0  0  0  0
  5  8  1  0  0  0  0
  5 22  1  0  0  0  0
  6 16  1  0  0  0  0
  6 19  1  0  0  0  0
  6 20  1  0  0  0  0
  7 11  1  0  0  0  0
  7 12  1  0  0  0  0
  8 10  2  0  0  0  0
  8 26  1  0  0  0  0
  9 14  2  0  0  0  0
 10 11  1  0  0  0  0
 11 13  2  0  0  0  0
 12 27  1  0  0  0  0
 12 28  1  0  0  0  0
 12 29  1  0  0  0  0
 13 14  1  0  0  0  0
 15 16  1  0  0  0  0
 15 30  1  0  0  0  0
 15 31  1  0  0  0  0
 16 17  1  0  0  0  0
 16 32  1  0  0  0  0
 17 18  1  0  0  0  0
 17 33  1  0  0  0  0
 17 34  1  0  0  0  0
 18 19  1  0  0  0  0
 18 35  1  0  0  0  0
 18 36  1  0  0  0  0
 19 37  1  0  0  0  0
 19 38  1  0  0  0  0
 20 21  1  0  0  0  0
 20 39  1  0  0  0  0
 20 40  1  0  0  0  0
 21 41  1  0  0  0  0
 21 42  1  0  0  0  0
 21 43  1  0  0  0  0
 22 23  1  0  0  0  0
 22 44  1  0  0  0  0
 22 45  1  0  0  0  0
 23 46  1  0  0  0  0
 23 47  1  0  0  0  0
 23 48  1  0  0  0  0
M  END
> <ConfScore>
-0.730488 

$$$$
3PBL_ETQ_A_1200
  RCSB PDB10041311333D
Coordinates from PDB:3PBL:A:1200 Model:1 without hydrogens
 48 49  0  0  0  0  0  0  0  0999 V2000
   -0.8080  -12.3360   10.5520 C   0  0  0  1  0  3  0  0  0  0  0  0
   -0.7985  -15.6032   11.2624 N   0  0  0  1  0  3  0  0  0  0  0  0
   -1.5290  -12.2300   11.6990 O   0  0  0  1  0  2  0  0  0  0  0  0
    1.6090  -12.6560    6.7620 Cl  0  0  0  1  0  1  0  0  0  0  0  0
   -0.8770  -11.3050    9.6070 C   0  0  0  1  0  3  0  0  0  0  0  0
    1.5570  -16.7865   12.8053 N   0  0  0  1  0  3  0  0  0  0  0  0
    1.5050  -14.6500    8.8870 O   0  0  0  1  0  2  0  0  0  0  0  0
   -0.1100  -11.4090    8.4450 C   0  0  0  1  0  3  0  0  0  0  0  0
    0.8600  -14.5013   12.3274 O   0  0  0  1  0  1  0  0  0  0  0  0
    0.6880  -12.5280    8.2200 C   0  0  0  1  0  3  0  0  0  0  0  0
    0.7350  -13.5620    9.1540 C   0  0  0  1  0  3  0  0  0  0  0  0
    2.1512  -14.4580    7.6209 C   0  0  0  1  0  4  0  0  0  0  0  0
   -0.0250  -13.4780   10.3280 C   0  0  0  1  0  3  0  0  0  0  0  0
    0.0360  -14.5730   11.4180 C   0  0  0  1  0  3  0  0  0  0  0  0
   -0.8265  -16.7723   12.1637 C   0  0  0  1  0  4  0  0  0  0  0  0
    0.4956  -17.5465   12.1137 C   0  0  0  1  0  4  0  0  0  0  0  0
    0.3436  -18.8631   12.8718 C   0  0  0  1  0  4  0  0  0  0  0  0
    0.7640  -18.4855   14.2826 C   0  0  0  1  0  4  0  0  0  0  0  0
    1.9257  -17.5391   14.0210 C   0  0  0  1  0  4  0  0  0  0  0  0
    2.7192  -16.6785   11.9131 C   0  0  0  1  0  4  0  0  0  0  0  0
    3.5587  -15.4650   12.2849 C   0  0  0  1  0  4  0  0  0  0  0  0
   -1.6890  -10.0110    9.7860 C   0  0  0  1  0  4  0  0  0  0  0  0
   -1.2246   -9.1814   10.9852 C   0  0  0  1  0  4  0  0  0  0  0  0
   -1.4836  -15.5805   10.4409 H   0  0  0  1  0  1  0  0  0  0  0  0
   -0.8760  -12.1546   12.5178 H   0  0  0  1  0  1  0  0  0  0  0  0
   -0.1360  -10.6071    7.7072 H   0  0  0  1  0  1  0  0  0  0  0  0
    3.1987  -14.7490    7.6992 H   0  0  0  1  0  1  0  0  0  0  0  0
    2.0865  -13.4080    7.3357 H   0  0  0  1  0  1  0  0  0  0  0  0
    1.6596  -15.0711    6.8656 H   0  0  0  1  0  1  0  0  0  0  0  0
   -1.6373  -17.4347   11.8606 H   0  0  0  1  0  1  0  0  0  0  0  0
   -0.9987  -16.4297   13.1841 H   0  0  0  1  0  1  0  0  0  0  0  0
    0.7512  -17.7114   11.0670 H   0  0  0  1  0  1  0  0  0  0  0  0
    0.9971  -19.6318   12.4594 H   0  0  0  1  0  1  0  0  0  0  0  0
   -0.6886  -19.2126   12.8495 H   0  0  0  1  0  1  0  0  0  0  0  0
    1.0851  -19.3604   14.8480 H   0  0  0  1  0  1  0  0  0  0  0  0
   -0.0435  -17.9839   14.8159 H   0  0  0  1  0  1  0  0  0  0  0  0
    2.0604  -16.8599   14.8629 H   0  0  0  1  0  1  0  0  0  0  0  0
    2.8450  -18.1013   13.8564 H   0  0  0  1  0  1  0  0  0  0  0  0
    2.3743  -16.5755   10.8843 H   0  0  0  1  0  1  0  0  0  0  0  0
    3.3275  -17.5783   12.0047 H   0  0  0  1  0  1  0  0  0  0  0  0
    3.4002  -15.2209   13.3353 H   0  0  0  1  0  1  0  0  0  0  0  0
    3.2646  -14.6169   11.6666 H   0  0  0  1  0  1  0  0  0  0  0  0
    4.6126  -15.6881   12.1190 H   0  0  0  1  0  1  0  0  0  0  0  0
   -2.7369  -10.2745    9.9296 H   0  0  0  1  0  1  0  0  0  0  0  0
   -1.5859   -9.4076    8.8842 H   0  0  0  1  0  1  0  0  0  0  0  0
   -0.2687   -9.5634   11.3436 H   0  0  0  1  0  1  0  0  0  0  0  0
   -1.9648   -9.2497   11.7824 H   0  0  0  1  0  1  0  0  0  0  0  0
   -1.1096   -8.1403   10.6837 H   0  0  0  1  0  1  0  0  0  0  0  0
  1  3  1  0  0  0  0
  1  5  2  0  0  0  0
  1 13  1  0  0  0  0
  2 14  1  0  0  0  0
  2 15  1  0  0  0  0
  2 24  1  0  0  0  0
  3 25  1  0  0  0  0
  4 10  1  0  0  0  0
  5  8  1  0  0  0  0
  5 22  1  0  0  0  0
  6 16  1  0  0  0  0
  6 19  1  0  0  0  0
  6 20  1  0  0  0  0
  7 11  1  0  0  0  0
  7 12  1  0  0  0  0
  8 10  2  0  0  0  0
  8 26  1  0  0  0  0
  9 14  2  0  0  0  0
 10 11  1  0  0  0  0
 11 13  2  0  0  0  0
 12 27  1  0  0  0  0
 12 28  1  0  0  0  0
 12 29  1  0  0  0  0
 13 14  1  0  0  0  0
 15 16  1  0  0  0  0
 15 30  1  0  0  0  0
 15 31  1  0  0  0  0
 16 17  1  0  0  0  0
 16 32  1  0  0  0  0
 17 18  1  0  0  0  0
 17 33  1  0  0  0  0
 17 34  1  0  0  0  0
 18 19  1  0  0  0  0
 18 35  1  0  0  0  0
 18 36  1  0  0  0  0
 19 37  1  0  0  0  0
 19 38  1  0  0  0  0
 20 21  1  0  0  0  0
 20 39  1  0  0  0  0
 20 40  1  0  0  0  0
 21 41  1  0  0  0  0
 21 42  1  0  0  0  0
 21 43  1  0  0  0  0
 22 23  1  0  0  0  0
 22 44  1  0  0  0  0
 22 45  1  0  0  0  0
 23 46  1  0  0  0  0
 23 47  1  0  0  0  0
 23 48  1  0  0  0  0
M  END
> <ConfScore>
-0.255868 

$$$$
3PBL_ETQ_A_1200
  RCSB PDB10041311333D
Coordinates from PDB:3PBL:A:1200 Model:1 without hydrogens
 48 49  0  0  0  0  0  0  0  0999 V2000
   -0.8080  -12.3360   10.5520 C   0  0  0  1  0  3  0  0  0  0  0  0
    0.8875  -15.5765   11.1949 N   0  0  0  1  0  3  0  0  0  0  0  0
   -1.5290  -12.2300   11.6990 O   0  0  0  1  0  2  0  0  0  0  0  0
    1.6090  -12.6560    6.7620 Cl  0  0  0  1  0  1  0  0  0  0  0  0
   -0.8770  -11.3050    9.6070 C   0  0  0  1  0  3  0  0  0  0  0  0
    3.4477  -17.2192   11.4698 N   0  0  0  1  0  3  0  0  0  0  0  0
    1.5050  -14.6500    8.8870 O   0  0  0  1  0  2  0  0  0  0  0  0
   -0.1100  -11.4090    8.4450 C   0  0  0  1  0  3  0  0  0  0  0  0
   -0.6265  -14.4643   12.4478 O   0  0  0  1  0  1  0  0  0  0  0  0
    0.6880  -12.5280    8.2200 C   0  0  0  1  0  3  0  0  0  0  0  0
    0.7350  -13.5620    9.1540 C   0  0  0  1  0  3  0  0  0  0  0  0
    2.0610  -14.5099    7.5722 C   0  0  0  1  0  4  0  0  0  0  0  0
   -0.0250  -13.4780   10.3280 C   0  0  0  1  0  3  0  0  0  0  0  0
    0.0360  -14.5730   11.4180 C   0  0  0  1  0  3  0  0  0  0  0  0
    1.1485  -16.6553   12.1686 C   0  0  0  1  0  4  0  0  0  0  0  0
    2.0660  -17.7309   11.5761 C   0  0  0  1  0  4  0  0  0  0  0  0
    2.1211  -18.9296   12.5204 C   0  0  0  1  0  4  0  0  0  0  0  0
    3.3025  -18.5943   13.4156 C   0  0  0  1  0  4  0  0  0  0  0  0
    4.2793  -17.9756   12.4272 C   0  0  0  1  0  4  0  0  0  0  0  0
    3.9316  -17.4449   10.1011 C   0  0  0  1  0  4  0  0  0  0  0  0
    5.0378  -16.4563    9.7629 C   0  0  0  1  0  4  0  0  0  0  0  0
   -1.6890  -10.0110    9.7860 C   0  0  0  1  0  4  0  0  0  0  0  0
   -1.2246   -9.1814   10.9852 C   0  0  0  1  0  4  0  0  0  0  0  0
    1.4086  -15.6004   10.2606 H   0  0  0  1  0  1  0  0  0  0  0  0
   -0.8760  -12.1546   12.5178 H   0  0  0  1  0  1  0  0  0  0  0  0
   -0.1360  -10.6071    7.7072 H   0  0  0  1  0  1  0  0  0  0  0  0
    3.1009  -14.8365    7.5802 H   0  0  0  1  0  1  0  0  0  0  0  0
    2.0110  -13.4649    7.2663 H   0  0  0  1  0  1  0  0  0  0  0  0
    1.4936  -15.1219    6.8710 H   0  0  0  1  0  1  0  0  0  0  0  0
    0.2013  -17.1139   12.4525 H   0  0  0  1  0  1  0  0  0  0  0  0
    1.6254  -16.2290   13.0511 H   0  0  0  1  0  1  0  0  0  0  0  0
    1.6746  -18.0071   10.5970 H   0  0  0  1  0  1  0  0  0  0  0  0
    2.2943  -19.8550   11.9711 H   0  0  0  1  0  1  0  0  0  0  0  0
    1.2016  -19.0166   13.0992 H   0  0  0  1  0  1  0  0  0  0  0  0
    3.7184  -19.4908   13.8754 H   0  0  0  1  0  1  0  0  0  0  0  0
    3.0217  -17.8835   14.1928 H   0  0  0  1  0  1  0  0  0  0  0  0
    4.9699  -17.3077   12.9420 H   0  0  0  1  0  1  0  0  0  0  0  0
    4.8422  -18.7533   11.9109 H   0  0  0  1  0  1  0  0  0  0  0  0
    3.1060  -17.3138    9.4017 H   0  0  0  1  0  1  0  0  0  0  0  0
    4.3196  -18.4603   10.0198 H   0  0  0  1  0  1  0  0  0  0  0  0
    5.6632  -16.2956   10.6410 H   0  0  0  1  0  1  0  0  0  0  0  0
    4.5961  -15.5091    9.4534 H   0  0  0  1  0  1  0  0  0  0  0  0
    5.6465  -16.8561    8.9518 H   0  0  0  1  0  1  0  0  0  0  0  0
   -2.7369  -10.2745    9.9296 H   0  0  0  1  0  1  0  0  0  0  0  0
   -1.5859   -9.4076    8.8842 H   0  0  0  1  0  1  0  0  0  0  0  0
   -0.2687   -9.5634   11.3436 H   0  0  0  1  0  1  0  0  0  0  0  0
   -1.9648   -9.2497   11.7824 H   0  0  0  1  0  1  0  0  0  0  0  0
   -1.1096   -8.1403   10.6837 H   0  0  0  1  0  1  0  0  0  0  0  0
  1  3  1  0  0  0  0
  1  5  2  0  0  0  0
  1 13  1  0  0  0  0
  2 14  1  0  0  0  0
  2 15  1  0  0  0  0
  2 24  1  0  0  0  0
  3 25  1  0  0  0  0
  4 10  1  0  0  0  0
  5  8  1  0  0  0  0
  5 22  1  0  0  0  0
  6 16  1  0  0  0  0
  6 19  1  0  0  0  0
  6 20  1  0  0  0  0
  7 11  1  0  0  0  0
  7 12  1  0  0  0  0
  8 10  2  0  0  0  0
  8 26  1  0  0  0  0
  9 14  2  0  0  0  0
 10 11  1  0  0  0  0
 11 13  2  0  0  0  0
 12 27  1  0  0  0  0
 12 28  1  0  0  0  0
 12 29  1  0  0  0  0
 13 14  1  0  0  0  0
 15 16  1  0  0  0  0
 15 30  1  0  0  0  0
 15 31  1  0  0  0  0
 16 17  1  0  0  0  0
 16 32  1  0  0  0  0
 17 18  1  0  0  0  0
 17 33  1  0  0  0  0
 17 34  1  0  0  0  0
 18 19  1  0  0  0  0
 18 35  1  0  0  0  0
 18 36  1  0  0  0  0
 19 37  1  0  0  0  0
 19 38  1  0  0  0  0
 20 21  1  0  0  0  0
 20 39  1  0  0  0  0
 20 40  1  0  0  0  0
 21 41  1  0  0  0  0
 21 42  1  0  0  0  0
 21 43  1  0  0  0  0
 22 23  1  0  0  0  0
 22 44  1  0  0  0  0
 22 45  1  0  0  0  0
 23 46  1  0  0  0  0
 23 47  1  0  0  0  0
 23 48  1  0  0  0  0
M  END
> <ConfScore>
-0.758041 

$$$$
3PBL_ETQ_A_1200
  RCSB PDB10041311333D
Coordinates from PDB:3PBL:A:1200 Model:1 without hydrogens
 48 49  0  0  0  0  0  0  0  0999 V2000
   -0.8080  -12.3360   10.5520 C   0  0  0  1  0  3  0  0  0  0  0  0
   -0.7916  -14.4170   12.4537 N   0  0  0  1  0  3  0  0  0  0  0  0
   -1.5290  -12.2300   11.6990 O   0  0  0  1  0  2  0  0  0  0  0  0
    1.6090  -12.6560    6.7620 Cl  0  0  0  1  0  1  0  0  0  0  0  0
   -0.8770  -11.3050    9.6070 C   0  0  0  1  0  3  0  0  0  0  0  0
   -3.3173  -15.0613   14.0457 N   0  0  0  1  0  3  0  0  0  0  0  0
    1.5050  -14.6500    8.8870 O   0  0  0  1  0  2  0  0  0  0  0  0
   -0.1100  -11.4090    8.4450 C   0  0  0  1  0  3  0  0  0  0  0  0
    0.7685  -15.5503   11.2787 O   0  0  0  1  0  1  0  0  0  0  0  0
    0.6880  -12.5280    8.2200 C   0  0  0  1  0  3  0  0  0  0  0  0
    0.7350  -13.5620    9.1540 C   0  0  0  1  0  3  0  0  0  0  0  0
    2.1512  -14.4580    7.6209 C   0  0  0  1  0  4  0  0  0  0  0  0
   -0.0250  -13.4780   10.3280 C   0  0  0  1  0  3  0  0  0  0  0  0
    0.0360  -14.5730   11.4180 C   0  0  0  1  0  3  0  0  0  0  0  0
   -0.9240  -15.4013   13.5462 C   0  0  0  1  0  4  0  0  0  0  0  0
   -1.9489  -14.9416   14.5894 C   0  0  0  1  0  4  0  0  0  0  0  0
   -1.8855  -15.8626   15.8056 C   0  0  0  1  0  4  0  0  0  0  0  0
   -2.9042  -16.9371   15.4631 C   0  0  0  1  0  4  0  0  0  0  0  0
   -4.0077  -16.1242   14.8033 C   0  0  0  1  0  4  0  0  0  0  0  0
   -4.0141  -13.7816   14.2328 C   0  0  0  1  0  4  0  0  0  0  0  0
   -5.1349  -13.6372   13.2138 C   0  0  0  1  0  4  0  0  0  0  0  0
   -1.6890  -10.0110    9.7860 C   0  0  0  1  0  4  0  0  0  0  0  0
   -1.3315   -9.2603   11.0707 C   0  0  0  1  0  4  0  0  0  0  0  0
   -1.3909  -13.5315   12.4942 H   0  0  0  1  0  1  0  0  0  0  0  0
   -0.8760  -12.1546   12.5178 H   0  0  0  1  0  1  0  0  0  0  0  0
   -0.1360  -10.6071    7.7072 H   0  0  0  1  0  1  0  0  0  0  0  0
    3.1987  -14.7490    7.6992 H   0  0  0  1  0  1  0  0  0  0  0  0
    2.0865  -13.4080    7.3357 H   0  0  0  1  0  1  0  0  0  0  0  0
    1.6596  -15.0711    6.8656 H   0  0  0  1  0  1  0  0  0  0  0  0
    0.0443  -15.5258   14.0309 H   0  0  0  1  0  1  0  0  0  0  0  0
   -1.2468  -16.3546   13.1278 H   0  0  0  1  0  1  0  0  0  0  0  0
   -1.7220  -13.9088   14.8538 H   0  0  0  1  0  1  0  0  0  0  0  0
   -2.1650  -15.3318   16.7156 H   0  0  0  1  0  1  0  0  0  0  0  0
   -0.8894  -16.2889   15.9243 H   0  0  0  1  0  1  0  0  0  0  0  0
   -3.2652  -17.4412   16.3596 H   0  0  0  1  0  1  0  0  0  0  0  0
   -2.4882  -17.6727   14.7747 H   0  0  0  1  0  1  0  0  0  0  0  0
   -4.5929  -16.7519   14.1312 H   0  0  0  1  0  1  0  0  0  0  0  0
   -4.6632  -15.6894   15.5579 H   0  0  0  1  0  1  0  0  0  0  0  0
   -3.3047  -12.9640   14.1054 H   0  0  0  1  0  1  0  0  0  0  0  0
   -4.4349  -13.7450   15.2377 H   0  0  0  1  0  1  0  0  0  0  0  0
   -6.0497  -13.3294   13.7202 H   0  0  0  1  0  1  0  0  0  0  0  0
   -5.2991  -14.5933   12.7168 H   0  0  0  1  0  1  0  0  0  0  0  0
   -4.8586  -12.8855   12.4744 H   0  0  0  1  0  1  0  0  0  0  0  0
   -2.7484  -10.2658    9.8148 H   0  0  0  1  0  1  0  0  0  0  0  0
   -1.4950   -9.3576    8.9354 H   0  0  0  1  0  1  0  0  0  0  0  0
   -0.3789   -9.6269   11.4533 H   0  0  0  1  0  1  0  0  0  0  0  0
   -2.1097   -9.4251   11.8160 H   0  0  0  1  0  1  0  0  0  0  0  0
   -1.2513   -8.1943   10.8580 H   0  0  0  1  0  1  0  0  0  0  0  0
  1  3  1  0  0  0  0
  1  5  2  0  0  0  0
  1 13  1  0  0  0  0
  2 14  1  0  0  0  0
  2 15  1  0  0  0  0
  2 24  1  0  0  0  0
  3 25  1  0  0  0  0
  4 10  1  0  0  0  0
  5  8  1  0  0  0  0
  5 22  1  0  0  0  0
  6 16  1  0  0  0  0
  6 19  1  0  0  0  0
  6 20  1  0  0  0  0
  7 11  1  0  0  0  0
  7 12  1  0  0  0  0
  8 10  2  0  0  0  0
  8 26  1  0  0  0  0
  9 14  2  0  0  0  0
 10 11  1  0  0  0  0
 11 13  2  0  0  0  0
 12 27  1  0  0  0  0
 12 28  1  0  0  0  0
 12 29  1  0  0  0  0
 13 14  1  0  0  0  0
 15 16  1  0  0  0  0
 15 30  1  0  0  0  0
 15 31  1  0  0  0  0
 16 17  1  0  0  0  0
 16 32  1  0  0  0  0
 17 18  1  0  0  0  0
 17 33  1  0  0  0  0
 17 34  1  0  0  0  0
 18 19  1  0  0  0  0
 18 35  1  0  0  0  0
 18 36  1  0  0  0  0
 19 37  1  0  0  0  0
 19 38  1  0  0  0  0
 20 21  1  0  0  0  0
 20 39  1  0  0  0  0
 20 40  1  0  0  0  0
 21 41  1  0  0  0  0
 21 42  1  0  0  0  0
 21 43  1  0  0  0  0
 22 23  1  0  0  0  0
 22 44  1  0  0  0  0
 22 45  1  0  0  0  0
 23 46  1  0  0  0  0
 23 47  1  0  0  0  0
 23 48  1  0  0  0  0
M  END
> <ConfScore>
-0.533421 

$$$$
3PBL_ETQ_A_1200
  RCSB PDB10041311333D
Coordinates from PDB:3PBL:A:1200 Model:1 without hydrogens
 48 49  0  0  0  0  0  0  0  0999 V2000
   -0.8080  -12.3360   10.5520 C   0  0  0  1  0  3  0  0  0  0  0  0
    0.7061  -15.6824   11.0986 N   0  0  0  1  0  3  0  0  0  0  0  0
   -1.5290  -12.2300   11.6990 O   0  0  0  1  0  2  0  0  0  0  0  0
    1.6090  -12.6560    6.7620 Cl  0  0  0  1  0  1  0  0  0  0  0  0
   -0.8770  -11.3050    9.6070 C   0  0  0  1  0  3  0  0  0  0  0  0
    3.0275  -17.6670   11.0680 N   0  0  0  1  0  3  0  0  0  0  0  0
    1.5050  -14.6500    8.8870 O   0  0  0  1  0  2  0  0  0  0  0  0
   -0.1100  -11.4090    8.4450 C   0  0  0  1  0  3  0  0  0  0  0  0
   -0.4591  -14.3771   12.5260 O   0  0  0  1  0  1  0  0  0  0  0  0
    0.6880  -12.5280    8.2200 C   0  0  0  1  0  3  0  0  0  0  0  0
    0.7350  -13.5620    9.1540 C   0  0  0  1  0  3  0  0  0  0  0  0
    2.8116  -14.4369    9.4392 C   0  0  0  1  0  4  0  0  0  0  0  0
   -0.0250  -13.4780   10.3280 C   0  0  0  1  0  3  0  0  0  0  0  0
    0.0360  -14.5730   11.4180 C   0  0  0  1  0  3  0  0  0  0  0  0
    0.9319  -16.7973   12.0399 C   0  0  0  1  0  4  0  0  0  0  0  0
    1.6116  -17.9834   11.3464 C   0  0  0  1  0  4  0  0  0  0  0  0
    1.6149  -19.1880   12.2845 C   0  0  0  1  0  4  0  0  0  0  0  0
    2.9320  -19.0293   13.0259 C   0  0  0  1  0  4  0  0  0  0  0  0
    3.8569  -18.5416   11.9211 C   0  0  0  1  0  4  0  0  0  0  0  0
    3.3042  -17.9431    9.6518 C   0  0  0  1  0  4  0  0  0  0  0  0
    4.4872  -17.1138    9.1740 C   0  0  0  1  0  4  0  0  0  0  0  0
   -1.6890  -10.0110    9.7860 C   0  0  0  1  0  4  0  0  0  0  0  0
   -1.3315   -9.2603   11.0707 C   0  0  0  1  0  4  0  0  0  0  0  0
    1.1005  -15.7684   10.1077 H   0  0  0  1  0  1  0  0  0  0  0  0
   -0.8760  -12.1546   12.5178 H   0  0  0  1  0  1  0  0  0  0  0  0
   -0.1360  -10.6071    7.7072 H   0  0  0  1  0  1  0  0  0  0  0  0
    2.7311  -14.2823   10.5151 H   0  0  0  1  0  1  0  0  0  0  0  0
    3.2613  -13.5573    8.9786 H   0  0  0  1  0  1  0  0  0  0  0  0
    3.4352  -15.3091    9.2433 H   0  0  0  1  0  1  0  0  0  0  0  0
   -0.0278  -17.1231   12.4409 H   0  0  0  1  0  1  0  0  0  0  0  0
    1.5678  -16.4506   12.8545 H   0  0  0  1  0  1  0  0  0  0  0  0
    1.0688  -18.1921   10.4245 H   0  0  0  1  0  1  0  0  0  0  0  0
    1.5893  -20.1227   11.7242 H   0  0  0  1  0  1  0  0  0  0  0  0
    0.7700  -19.1529   12.9723 H   0  0  0  1  0  1  0  0  0  0  0  0
    3.2724  -19.9797   13.4370 H   0  0  0  1  0  1  0  0  0  0  0  0
    2.8499  -18.2949   13.8270 H   0  0  0  1  0  1  0  0  0  0  0  0
    4.6913  -17.9814   12.3430 H   0  0  0  1  0  1  0  0  0  0  0  0
    4.2388  -19.3843   11.3447 H   0  0  0  1  0  1  0  0  0  0  0  0
    2.4254  -17.6913    9.0581 H   0  0  0  1  0  1  0  0  0  0  0  0
    3.5345  -19.0015    9.5301 H   0  0  0  1  0  1  0  0  0  0  0  0
    5.2173  -17.0242    9.9784 H   0  0  0  1  0  1  0  0  0  0  0  0
    4.1417  -16.1212    8.8850 H   0  0  0  1  0  1  0  0  0  0  0  0
    4.9500  -17.6020    8.3163 H   0  0  0  1  0  1  0  0  0  0  0  0
   -2.7484  -10.2658    9.8148 H   0  0  0  1  0  1  0  0  0  0  0  0
   -1.4950   -9.3576    8.9354 H   0  0  0  1  0  1  0  0  0  0  0  0
   -0.3789   -9.6269   11.4533 H   0  0  0  1  0  1  0  0  0  0  0  0
   -2.1097   -9.4251   11.8160 H   0  0  0  1  0  1  0  0  0  0  0  0
   -1.2513   -8.1943   10.8580 H   0  0  0  1  0  1  0  0  0  0  0  0
  1  3  1  0  0  0  0
  1  5  2  0  0  0  0
  1 13  1  0  0  0  0
  2 14  1  0  0  0  0
  2 15  1  0  0  0  0
  2 24  1  0  0  0  0
  3 25  1  0  0  0  0
  4 10  1  0  0  0  0
  5  8  1  0  0  0  0
  5 22  1  0  0  0  0
  6 16  1  0  0  0  0
  6 19  1  0  0  0  0
  6 20  1  0  0  0  0
  7 11  1  0  0  0  0
  7 12  1  0  0  0  0
  8 10  2  0  0  0  0
  8 26  1  0  0  0  0
  9 14  2  0  0  0  0
 10 11  1  0  0  0  0
 11 13  2  0  0  0  0
 12 27  1  0  0  0  0
 12 28  1  0  0  0  0
 12 29  1  0  0  0  0
 13 14  1  0  0  0  0
 15 16  1  0  0  0  0
 15 30  1  0  0  0  0
 15 31  1  0  0  0  0
 16 17  1  0  0  0  0
 16 32  1  0  0  0  0
 17 18  1  0  0  0  0
 17 33  1  0  0  0  0
 17 34  1  0  0  0  0
 18 19  1  0  0  0  0
 18 35  1  0  0  0  0
 18 36  1  0  0  0  0
 19 37  1  0  0  0  0
 19 38  1  0  0  0  0
 20 21  1  0  0  0  0
 20 39  1  0  0  0  0
 20 40  1  0  0  0  0
 21 41  1  0  0  0  0
 21 42  1  0  0  0  0
 21 43  1  0  0  0  0
 22 23  1  0  0  0  0
 22 44  1  0  0  0  0
 22 45  1  0  0  0  0
 23 46  1  0  0  0  0
 23 47  1  0  0  0  0
 23 48  1  0  0  0  0
M  END
> <ConfScore>
-0.480933 

$$$$
3PBL_ETQ_A_1200
  RCSB PDB10041311333D
Coordinates from PDB:3PBL:A:1200 Model:1 without hydrogens
 48 49  0  0  0  0  0  0  0  0999 V2000
   -0.8080  -12.3360   10.5520 C   0  0  0  1  0  3  0  0  0  0  0  0
    0.8875  -15.5765   11.1949 N   0  0  0  1  0  3  0  0  0  0  0  0
   -1.5290  -12.2300   11.6990 O   0  0  0  1  0  2  0  0  0  0  0  0
    1.6090  -12.6560    6.7620 Cl  0  0  0  1  0  1  0  0  0  0  0  0
   -0.8770  -11.3050    9.6070 C   0  0  0  1  0  3  0  0  0  0  0  0
    3.4477  -17.2192   11.4698 N   0  0  0  1  0  3  0  0  0  0  0  0
    1.5050  -14.6500    8.8870 O   0  0  0  1  0  2  0  0  0  0  0  0
   -0.1100  -11.4090    8.4450 C   0  0  0  1  0  3  0  0  0  0  0  0
   -0.6265  -14.4643   12.4478 O   0  0  0  1  0  1  0  0  0  0  0  0
    0.6880  -12.5280    8.2200 C   0  0  0  1  0  3  0  0  0  0  0  0
    0.7350  -13.5620    9.1540 C   0  0  0  1  0  3  0  0  0  0  0  0
    2.0610  -14.5099    7.5722 C   0  0  0  1  0  4  0  0  0  0  0  0
   -0.0250  -13.4780   10.3280 C   0  0  0  1  0  3  0  0  0  0  0  0
    0.0360  -14.5730   11.4180 C   0  0  0  1  0  3  0  0  0  0  0  0
    1.1485  -16.6553   12.1686 C   0  0  0  1  0  4  0  0  0  0  0  0
    2.0660  -17.7309   11.5761 C   0  0  0  1  0  4  0  0  0  0  0  0
    2.1211  -18.9296   12.5204 C   0  0  0  1  0  4  0  0  0  0  0  0
    3.3025  -18.5943   13.4156 C   0  0  0  1  0  4  0  0  0  0  0  0
    4.2793  -17.9756   12.4272 C   0  0  0  1  0  4  0  0  0  0  0  0
    3.9316  -17.4449   10.1011 C   0  0  0  1  0  4  0  0  0  0  0  0
    5.0378  -16.4563    9.7629 C   0  0  0  1  0  4  0  0  0  0  0  0
   -1.6890  -10.0110    9.7860 C   0  0  0  1  0  4  0  0  0  0  0  0
   -0.8085   -8.7601    9.8271 C   0  0  0  1  0  4  0  0  0  0  0  0
    1.4086  -15.6004   10.2606 H   0  0  0  1  0  1  0  0  0  0  0  0
   -0.8760  -12.1546   12.5178 H   0  0  0  1  0  1  0  0  0  0  0  0
   -0.1360  -10.6071    7.7072 H   0  0  0  1  0  1  0  0  0  0  0  0
    3.1009  -14.8365    7.5802 H   0  0  0  1  0  1  0  0  0  0  0  0
    2.0110  -13.4649    7.2663 H   0  0  0  1  0  1  0  0  0  0  0  0
    1.4936  -15.1219    6.8710 H   0  0  0  1  0  1  0  0  0  0  0  0
    0.2013  -17.1139   12.4525 H   0  0  0  1  0  1  0  0  0  0  0  0
    1.6254  -16.2290   13.0511 H   0  0  0  1  0  1  0  0  0  0  0  0
    1.6746  -18.0071   10.5970 H   0  0  0  1  0  1  0  0  0  0  0  0
    2.2943  -19.8550   11.9711 H   0  0  0  1  0  1  0  0  0  0  0  0
    1.2016  -19.0166   13.0992 H   0  0  0  1  0  1  0  0  0  0  0  0
    3.7184  -19.4908   13.8754 H   0  0  0  1  0  1  0  0  0  0  0  0
    3.0217  -17.8835   14.1928 H   0  0  0  1  0  1  0  0  0  0  0  0
    4.9699  -17.3077   12.9420 H   0  0  0  1  0  1  0  0  0  0  0  0
    4.8422  -18.7533   11.9109 H   0  0  0  1  0  1  0  0  0  0  0  0
    3.1060  -17.3138    9.4017 H   0  0  0  1  0  1  0  0  0  0  0  0
    4.3196  -18.4603   10.0198 H   0  0  0  1  0  1  0  0  0  0  0  0
    5.6632  -16.2956   10.6410 H   0  0  0  1  0  1  0  0  0  0  0  0
    4.5961  -15.5091    9.4534 H   0  0  0  1  0  1  0  0  0  0  0  0
    5.6465  -16.8561    8.9518 H   0  0  0  1  0  1  0  0  0  0  0  0
   -2.2459  -10.0758   10.7208 H   0  0  0  1  0  1  0  0  0  0  0  0
   -2.3859   -9.9191    8.9529 H   0  0  0  1  0  1  0  0  0  0  0  0
   -0.7979   -8.3557   10.8393 H   0  0  0  1  0  1  0  0  0  0  0  0
   -1.2075   -8.0124    9.1416 H   0  0  0  1  0  1  0  0  0  0  0  0
    0.2072   -9.0210    9.5298 H   0  0  0  1  0  1  0  0  0  0  0  0
  1  3  1  0  0  0  0
  1  5  2  0  0  0  0
  1 13  1  0  0  0  0
  2 14  1  0  0  0  0
  2 15  1  0  0  0  0
  2 24  1  0  0  0  0
  3 25  1  0  0  0  0
  4 10  1  0  0  0  0
  5  8  1  0  0  0  0
  5 22  1  0  0  0  0
  6 16  1  0  0  0  0
  6 19  1  0  0  0  0
  6 20  1  0  0  0  0
  7 11  1  0  0  0  0
  7 12  1  0  0  0  0
  8 10  2  0  0  0  0
  8 26  1  0  0  0  0
  9 14  2  0  0  0  0
 10 11  1  0  0  0  0
 11 13  2  0  0  0  0
 12 27  1  0  0  0  0
 12 28  1  0  0  0  0
 12 29  1  0  0  0  0
 13 14  1  0  0  0  0
 15 16  1  0  0  0  0
 15 30  1  0  0  0  0
 15 31  1  0  0  0  0
 16 17  1  0  0  0  0
 16 32  1  0  0  0  0
 17 18  1  0  0  0  0
 17 33  1  0  0  0  0
 17 34  1  0  0  0  0
 18 19  1  0  0  0  0
 18 35  1  0  0  0  0
 18 36  1  0  0  0  0
 19 37  1  0  0  0  0
 19 38  1  0  0  0  0
 20 21  1  0  0  0  0
 20 39  1  0  0  0  0
 20 40  1  0  0  0  0
 21 41  1  0  0  0  0
 21 42  1  0  0  0  0
 21 43  1  0  0  0  0
 22 23  1  0  0  0  0
 22 44  1  0  0  0  0
 22 45  1  0  0  0  0
 23 46  1  0  0  0  0
 23 47  1  0  0  0  0
 23 48  1  0  0  0  0
M  END
> <ConfScore>
-0.691151 

$$$$
3PBL_ETQ_A_1200
  RCSB PDB10041311333D
Coordinates from PDB:3PBL:A:1200 Model:1 without hydrogens
 48 49  0  0  0  0  0  0  0  0999 V2000
   14.8618    8.9456    8.1873 C   0  0  0  1  0  3  0  0  0  0  0  0
   15.8040    7.1328    5.0842 N   0  0  0  1  0  3  0  0  0  0  0  0
   14.1972    7.9520    8.8336 O   0  0  0  1  0  2  0  0  0  0  0  0
   17.0977   12.2377    6.0727 Cl  0  0  0  1  0  1  0  0  0  0  0  0
   14.9790   10.1981    8.8023 C   0  0  0  1  0  3  0  0  0  0  0  0
   14.9066    3.5462    4.7704 N   0  0  0  1  0  3  0  0  0  0  0  0
   16.6438    9.5506    5.0353 O   0  0  0  1  0  2  0  0  0  0  0  0
   15.6888   11.2040    8.1437 C   0  0  0  1  0  3  0  0  0  0  0  0
   14.7446    6.3827    6.9319 O   0  0  0  1  0  1  0  0  0  0  0  0
   16.2472   10.9725    6.8890 C   0  0  0  1  0  3  0  0  0  0  0  0
   16.1076    9.7304    6.2714 C   0  0  0  1  0  3  0  0  0  0  0  0
   17.1919   10.7973    4.5847 C   0  0  0  1  0  4  0  0  0  0  0  0
   15.4010    8.7058    6.9148 C   0  0  0  1  0  3  0  0  0  0  0  0
   15.2661    7.2957    6.2950 C   0  0  0  1  0  3  0  0  0  0  0  0
   15.8558    5.8341    4.3837 C   0  0  0  1  0  4  0  0  0  0  0  0
   15.0573    4.8801    5.0876 C   0  0  0  1  0  4  0  0  0  0  0  0
   14.3580    5.0976    6.2805 C   0  0  0  1  0  4  0  0  0  0  0  0
   13.7976    3.8909    6.6710 C   0  0  0  1  0  4  0  0  0  0  0  0
   14.1448    2.9167    5.7222 C   0  0  0  1  0  4  0  0  0  0  0  0
   16.2292    2.9097    4.7084 C   0  0  0  1  0  4  0  0  0  0  0  0
   17.3106    3.8992    5.1169 C   0  0  0  1  0  4  0  0  0  0  0  0
   14.4404   10.5356   10.2030 C   0  0  0  1  0  4  0  0  0  0  0  0
   15.0810    9.6875   11.3040 C   0  0  0  1  0  4  0  0  0  0  0  0
   16.2197    7.9890    4.5953 H   0  0  0  1  0  1  0  0  0  0  0  0
   13.9051    8.2868    9.7850 H   0  0  0  1  0  1  0  0  0  0  0  0
   15.8070   12.1793    8.6158 H   0  0  0  1  0  1  0  0  0  0  0  0
   16.9966   11.5704    5.3279 H   0  0  0  1  0  1  0  0  0  0  0  0
   16.7277   11.0773    3.6390 H   0  0  0  1  0  1  0  0  0  0  0  0
   18.2677   10.6915    4.4448 H   0  0  0  1  0  1  0  0  0  0  0  0
   16.8874    5.4845    4.3429 H   0  0  0  1  0  1  0  0  0  0  0  0
   15.4714    5.9524    3.3706 H   0  0  0  1  0  1  0  0  0  0  0  0
   15.3303    5.6645    4.3817 H   0  0  0  1  0  1  0  0  0  0  0  0
   13.5725    5.8361    6.1200 H   0  0  0  1  0  1  0  0  0  0  0  0
   15.0415    5.4550    7.0507 H   0  0  0  1  0  1  0  0  0  0  0  0
   12.7130    3.9871    6.7204 H   0  0  0  1  0  1  0  0  0  0  0  0
   14.1825    3.6055    7.6500 H   0  0  0  1  0  1  0  0  0  0  0  0
   14.7184    2.1196    6.1952 H   0  0  0  1  0  1  0  0  0  0  0  0
   13.2467    2.4983    5.2678 H   0  0  0  1  0  1  0  0  0  0  0  0
   16.4179    2.5711    3.6897 H   0  0  0  1  0  1  0  0  0  0  0  0
   16.2492    2.0555    5.3853 H   0  0  0  1  0  1  0  0  0  0  0  0
   17.4236    3.8877    6.2010 H   0  0  0  1  0  1  0  0  0  0  0  0
   17.0280    4.9005    4.7919 H   0  0  0  1  0  1  0  0  0  0  0  0
   18.2548    3.6182    4.6504 H   0  0  0  1  0  1  0  0  0  0  0  0
   13.3641   10.3639   10.2129 H   0  0  0  1  0  1  0  0  0  0  0  0
   14.6432   11.5863   10.4102 H   0  0  0  1  0  1  0  0  0  0  0  0
   14.6881    9.9932   12.2737 H   0  0  0  1  0  1  0  0  0  0  0  0
   16.1616    9.8292   11.2891 H   0  0  0  1  0  1  0  0  0  0  0  0
   14.8494    8.6361   11.1336 H   0  0  0  1  0  1  0  0  0  0  0  0
  1  3  1  0  0  0  0
  1  5  2  0  0  0  0
  1 13  1  0  0  0  0
  2 14  1  0  0  0  0
  2 15  1  0  0  0  0
  2 24  1  0  0  0  0
  3 25  1  0  0  0  0
  4 10  1  0  0  0  0
  5  8  1  0  0  0  0
  5 22  1  0  0  0  0
  6 16  1  0  0  0  0
  6 19  1  0  0  0  0
  6 20  1  0  0  0  0
  7 11  1  0  0  0  0
  7 12  1  0  0  0  0
  8 10  2  0  0  0  0
  8 26  1  0  0  0  0
  9 14  2  0  0  0  0
 10 11  1  0  0  0  0
 11 13  2  0  0  0  0
 12 27  1  0  0  0  0
 12 28  1  0  0  0  0
 12 29  1  0  0  0  0
 13 14  1  0  0  0  0
 15 16  1  0  0  0  0
 15 30  1  0  0  0  0
 15 31  1  0  0  0  0
 16 17  1  0  0  0  0
 16 32  1  0  0  0  0
 17 18  1  0  0  0  0
 17 33  1  0  0  0  0
 17 34  1  0  0  0  0
 18 19  1  0  0  0  0
 18 35  1  0  0  0  0
 18 36  1  0  0  0  0
 19 37  1  0  0  0  0
 19 38  1  0  0  0  0
 20 21  1  0  0  0  0
 20 39  1  0  0  0  0
 20 40  1  0  0  0  0
 21 41  1  0  0  0  0
 21 42  1  0  0  0  0
 21 43  1  0  0  0  0
 22 23  1  0  0  0  0
 22 44  1  0  0  0  0
 22 45  1  0  0  0  0
 23 46  1  0  0  0  0
 23 47  1  0  0  0  0
 23 48  1  0  0  0  0
M  END
> <ConfScore>
-0.623246 

$$$$
3PBL_ETQ_A_1200
  RCSB PDB10041311333D
Coordinates from PDB:3PBL:A:1200 Model:1 without hydrogens
 48 49  0  0  0  0  0  0  0  0999 V2000
   14.8618    8.9456    8.1873 C   0  0  0  1  0  3  0  0  0  0  0  0
   14.2350    7.1148    5.4667 N   0  0  0  1  0  3  0  0  0  0  0  0
   14.1972    7.9520    8.8336 O   0  0  0  1  0  2  0  0  0  0  0  0
   17.0977   12.2377    6.0727 Cl  0  0  0  1  0  1  0  0  0  0  0  0
   14.9790   10.1981    8.8023 C   0  0  0  1  0  3  0  0  0  0  0  0
   15.0233    3.5760    4.6771 N   0  0  0  1  0  3  0  0  0  0  0  0
   16.6438    9.5506    5.0353 O   0  0  0  1  0  2  0  0  0  0  0  0
   15.6888   11.2040    8.1437 C   0  0  0  1  0  3  0  0  0  0  0  0
   16.1112    6.4322    6.5217 O   0  0  0  1  0  1  0  0  0  0  0  0
   16.2472   10.9725    6.8890 C   0  0  0  1  0  3  0  0  0  0  0  0
   16.1076    9.7304    6.2714 C   0  0  0  1  0  3  0  0  0  0  0  0
   17.2914   10.7655    4.6325 C   0  0  0  1  0  4  0  0  0  0  0  0
   15.4010    8.7058    6.9148 C   0  0  0  1  0  3  0  0  0  0  0  0
   15.2661    7.2957    6.2950 C   0  0  0  1  0  3  0  0  0  0  0  0
   14.0065    5.8673    4.7106 C   0  0  0  1  0  4  0  0  0  0  0  0
   14.9003    4.8550    5.1790 C   0  0  0  1  0  4  0  0  0  0  0  0
   15.8806    5.0017    6.1673 C   0  0  0  1  0  4  0  0  0  0  0  0
   16.5863    3.8107    6.2465 C   0  0  0  1  0  4  0  0  0  0  0  0
   16.0477    2.9166    5.3082 C   0  0  0  1  0  4  0  0  0  0  0  0
   15.3050    3.6449    3.2369 C   0  0  0  1  0  4  0  0  0  0  0  0
   15.4731    5.0930    2.8008 C   0  0  0  1  0  4  0  0  0  0  0  0
   14.4404   10.5356   10.2030 C   0  0  0  1  0  4  0  0  0  0  0  0
   15.0810    9.6875   11.3040 C   0  0  0  1  0  4  0  0  0  0  0  0
   13.5371    7.9165    5.3441 H   0  0  0  1  0  1  0  0  0  0  0  0
   13.9051    8.2868    9.7850 H   0  0  0  1  0  1  0  0  0  0  0  0
   15.8070   12.1793    8.6158 H   0  0  0  1  0  1  0  0  0  0  0  0
   17.0966   11.5436    5.3705 H   0  0  0  1  0  1  0  0  0  0  0  0
   16.9041   11.0793    3.6631 H   0  0  0  1  0  1  0  0  0  0  0  0
   18.3657   10.5968    4.5578 H   0  0  0  1  0  1  0  0  0  0  0  0
   14.1852    6.0473    3.6505 H   0  0  0  1  0  1  0  0  0  0  0  0
   12.9774    5.5384    4.8554 H   0  0  0  1  0  1  0  0  0  0  0  0
   14.0077    5.4755    5.0996 H   0  0  0  1  0  1  0  0  0  0  0  0
   15.4101    5.2179    7.1265 H   0  0  0  1  0  1  0  0  0  0  0  0
   16.5557    5.8152    5.9016 H   0  0  0  1  0  1  0  0  0  0  0  0
   16.4932    3.3932    7.2491 H   0  0  0  1  0  1  0  0  0  0  0  0
   17.6380    3.9900    6.0233 H   0  0  0  1  0  1  0  0  0  0  0  0
   16.8100    2.6273    4.5848 H   0  0  0  1  0  1  0  0  0  0  0  0
   15.6680    2.0276    5.8118 H   0  0  0  1  0  1  0  0  0  0  0  0
   14.4771    3.1975    2.6868 H   0  0  0  1  0  1  0  0  0  0  0  0
   16.2223    3.0963    3.0233 H   0  0  0  1  0  1  0  0  0  0  0  0
   15.5716    5.7288    3.6807 H   0  0  0  1  0  1  0  0  0  0  0  0
   14.6008    5.4024    2.2251 H   0  0  0  1  0  1  0  0  0  0  0  0
   16.3672    5.1851    2.1843 H   0  0  0  1  0  1  0  0  0  0  0  0
   13.3641   10.3639   10.2129 H   0  0  0  1  0  1  0  0  0  0  0  0
   14.6432   11.5863   10.4102 H   0  0  0  1  0  1  0  0  0  0  0  0
   14.6881    9.9932   12.2737 H   0  0  0  1  0  1  0  0  0  0  0  0
   16.1616    9.8292   11.2891 H   0  0  0  1  0  1  0  0  0  0  0  0
   14.8494    8.6361   11.1336 H   0  0  0  1  0  1  0  0  0  0  0  0
  1  3  1  0  0  0  0
  1  5  2  0  0  0  0
  1 13  1  0  0  0  0
  2 14  1  0  0  0  0
  2 15  1  0  0  0  0
  2 24  1  0  0  0  0
  3 25  1  0  0  0  0
  4 10  1  0  0  0  0
  5  8  1  0  0  0  0
  5 22  1  0  0  0  0
  6 16  1  0  0  0  0
  6 19  1  0  0  0  0
  6 20  1  0  0  0  0
  7 11  1  0  0  0  0
  7 12  1  0  0  0  0
  8 10  2  0  0  0  0
  8 26  1  0  0  0  0
  9 14  2  0  0  0  0
 10 11  1  0  0  0  0
 11 13  2  0  0  0  0
 12 27  1  0  0  0  0
 12 28  1  0  0  0  0
 12 29  1  0  0  0  0
 13 14  1  0  0  0  0
 15 16  1  0  0  0  0
 15 30  1  0  0  0  0
 15 31  1  0  0  0  0
 16 17  1  0  0  0  0
 16 32  1  0  0  0  0
 17 18  1  0  0  0  0
 17 33  1  0  0  0  0
 17 34  1  0  0  0  0
 18 19  1  0  0  0  0
 18 35  1  0  0  0  0
 18 36  1  0  0  0  0
 19 37  1  0  0  0  0
 19 38  1  0  0  0  0
 20 21  1  0  0  0  0
 20 39  1  0  0  0  0
 20 40  1  0  0  0  0
 21 41  1  0  0  0  0
 21 42  1  0  0  0  0
 21 43  1  0  0  0  0
 22 23  1  0  0  0  0
 22 44  1  0  0  0  0
 22 45  1  0  0  0  0
 23 46  1  0  0  0  0
 23 47  1  0  0  0  0
 23 48  1  0  0  0  0
M  END
> <ConfScore>
-0.139486 

$$$$
3PBL_ETQ_A_1200
  RCSB PDB10041311333D
Coordinates from PDB:3PBL:A:1200 Model:1 without hydrogens
 48 49  0  0  0  0  0  0  0  0999 V2000
   -0.8080  -12.3360   10.5520 C   0  0  0  1  0  3  0  0  0  0  0  0
   -0.2197  -14.1739   12.6659 N   0  0  0  1  0  3  0  0  0  0  0  0
   -1.5290  -12.2300   11.6990 O   0  0  0  1  0  2  0  0  0  0  0  0
    1.6090  -12.6560    6.7620 Cl  0  0  0  1  0  1  0  0  0  0  0  0
   -0.8770  -11.3050    9.6070 C   0  0  0  1  0  3  0  0  0  0  0  0
    0.3917  -13.5236   15.5868 N   0  0  0  1  0  3  0  0  0  0  0  0
    1.5050  -14.6500    8.8870 O   0  0  0  1  0  2  0  0  0  0  0  0
   -0.1100  -11.4090    8.4450 C   0  0  0  1  0  3  0  0  0  0  0  0
    0.2475  -15.7448   11.1125 O   0  0  0  1  0  1  0  0  0  0  0  0
    0.6880  -12.5280    8.2200 C   0  0  0  1  0  3  0  0  0  0  0  0
    0.7350  -13.5620    9.1540 C   0  0  0  1  0  3  0  0  0  0  0  0
    2.0610  -14.5099    7.5722 C   0  0  0  1  0  4  0  0  0  0  0  0
   -0.0250  -13.4780   10.3280 C   0  0  0  1  0  3  0  0  0  0  0  0
    0.0360  -14.5730   11.4180 C   0  0  0  1  0  3  0  0  0  0  0  0
   -0.3020  -15.0966   13.8156 C   0  0  0  1  0  4  0  0  0  0  0  0
    0.7566  -14.7647   14.8734 C   0  0  0  1  0  4  0  0  0  0  0  0
    0.7912  -15.8722   15.9240 C   0  0  0  1  0  4  0  0  0  0  0  0
   -0.2114  -15.3834   16.9563 C   0  0  0  1  0  4  0  0  0  0  0  0
    0.0669  -13.8881   16.9804 C   0  0  0  1  0  4  0  0  0  0  0  0
    1.5420  -12.6099   15.5649 C   0  0  0  1  0  4  0  0  0  0  0  0
    1.0754  -11.1703   15.7238 C   0  0  0  1  0  4  0  0  0  0  0  0
   -1.6890  -10.0110    9.7860 C   0  0  0  1  0  4  0  0  0  0  0  0
   -1.2246   -9.1814   10.9852 C   0  0  0  1  0  4  0  0  0  0  0  0
   -0.3733  -13.1298   12.8423 H   0  0  0  1  0  1  0  0  0  0  0  0
   -0.8760  -12.1546   12.5178 H   0  0  0  1  0  1  0  0  0  0  0  0
   -0.1360  -10.6071    7.7072 H   0  0  0  1  0  1  0  0  0  0  0  0
    3.1009  -14.8365    7.5802 H   0  0  0  1  0  1  0  0  0  0  0  0
    2.0110  -13.4649    7.2663 H   0  0  0  1  0  1  0  0  0  0  0  0
    1.4936  -15.1219    6.8710 H   0  0  0  1  0  1  0  0  0  0  0  0
   -0.1450  -16.1163   13.4642 H   0  0  0  1  0  1  0  0  0  0  0  0
   -1.2913  -15.0151   14.2659 H   0  0  0  1  0  1  0  0  0  0  0  0
    1.7168  -14.6580   14.3688 H   0  0  0  1  0  1  0  0  0  0  0  0
    1.7860  -15.9710   16.3584 H   0  0  0  1  0  1  0  0  0  0  0  0
    0.4833  -16.8273   15.4986 H   0  0  0  1  0  1  0  0  0  0  0  0
   -0.0294  -15.8362   17.9310 H   0  0  0  1  0  1  0  0  0  0  0  0
   -1.2349  -15.5910   16.6441 H   0  0  0  1  0  1  0  0  0  0  0  0
   -0.8130  -13.3426   17.3213 H   0  0  0  1  0  1  0  0  0  0  0  0
    0.9085  -13.6682   17.6374 H   0  0  0  1  0  1  0  0  0  0  0  0
    2.0666  -12.7151   14.6152 H   0  0  0  1  0  1  0  0  0  0  0  0
    2.2167  -12.8616   16.3831 H   0  0  0  1  0  1  0  0  0  0  0  0
    1.5777  -10.7173   16.5785 H   0  0  0  1  0  1  0  0  0  0  0  0
   -0.0025  -11.1538   15.8854 H   0  0  0  1  0  1  0  0  0  0  0  0
    1.3166  -10.6087   14.8213 H   0  0  0  1  0  1  0  0  0  0  0  0
   -2.7369  -10.2745    9.9296 H   0  0  0  1  0  1  0  0  0  0  0  0
   -1.5859   -9.4076    8.8842 H   0  0  0  1  0  1  0  0  0  0  0  0
   -0.2687   -9.5634   11.3436 H   0  0  0  1  0  1  0  0  0  0  0  0
   -1.9648   -9.2497   11.7824 H   0  0  0  1  0  1  0  0  0  0  0  0
   -1.1096   -8.1403   10.6837 H   0  0  0  1  0  1  0  0  0  0  0  0
  1  3  1  0  0  0  0
  1  5  2  0  0  0  0
  1 13  1  0  0  0  0
  2 14  1  0  0  0  0
  2 15  1  0  0  0  0
  2 24  1  0  0  0  0
  3 25  1  0  0  0  0
  4 10  1  0  0  0  0
  5  8  1  0  0  0  0
  5 22  1  0  0  0  0
  6 16  1  0  0  0  0
  6 19  1  0  0  0  0
  6 20  1  0  0  0  0
  7 11  1  0  0  0  0
  7 12  1  0  0  0  0
  8 10  2  0  0  0  0
  8 26  1  0  0  0  0
  9 14  2  0  0  0  0
 10 11  1  0  0  0  0
 11 13  2  0  0  0  0
 12 27  1  0  0  0  0
 12 28  1  0  0  0  0
 12 29  1  0  0  0  0
 13 14  1  0  0  0  0
 15 16  1  0  0  0  0
 15 30  1  0  0  0  0
 15 31  1  0  0  0  0
 16 17  1  0  0  0  0
 16 32  1  0  0  0  0
 17 18  1  0  0  0  0
 17 33  1  0  0  0  0
 17 34  1  0  0  0  0
 18 19  1  0  0  0  0
 18 35  1  0  0  0  0
 18 36  1  0  0  0  0
 19 37  1  0  0  0  0
 19 38  1  0  0  0  0
 20 21  1  0  0  0  0
 20 39  1  0  0  0  0
 20 40  1  0  0  0  0
 21 41  1  0  0  0  0
 21 42  1  0  0  0  0
 21 43  1  0  0  0  0
 22 23  1  0  0  0  0
 22 44  1  0  0  0  0
 22 45  1  0  0  0  0
 23 46  1  0  0  0  0
 23 47  1  0  0  0  0
 23 48  1  0  0  0  0
M  END
> <ConfScore>
-0.345991 

$$$$
3PBL_ETQ_A_1200
  RCSB PDB10041311333D
Coordinates from PDB:3PBL:A:1200 Model:1 without hydrogens
 48 49  0  0  0  0  0  0  0  0999 V2000
   -0.8080  -12.3360   10.5520 C   0  0  0  1  0  3  0  0  0  0  0  0
    0.2828  -14.1515   12.6603 N   0  0  0  1  0  3  0  0  0  0  0  0
   -1.5290  -12.2300   11.6990 O   0  0  0  1  0  2  0  0  0  0  0  0
    1.6090  -12.6560    6.7620 Cl  0  0  0  1  0  1  0  0  0  0  0  0
   -0.8770  -11.3050    9.6070 C   0  0  0  1  0  3  0  0  0  0  0  0
   -0.3285  -13.3692   15.5487 N   0  0  0  1  0  3  0  0  0  0  0  0
    1.5050  -14.6500    8.8870 O   0  0  0  1  0  2  0  0  0  0  0  0
   -0.1100  -11.4090    8.4450 C   0  0  0  1  0  3  0  0  0  0  0  0
   -0.1967  -15.7466   11.1356 O   0  0  0  1  0  1  0  0  0  0  0  0
    0.6880  -12.5280    8.2200 C   0  0  0  1  0  3  0  0  0  0  0  0
    0.7350  -13.5620    9.1540 C   0  0  0  1  0  3  0  0  0  0  0  0
    1.3984  -15.5703    9.9821 C   0  0  0  1  0  4  0  0  0  0  0  0
   -0.0250  -13.4780   10.3280 C   0  0  0  1  0  3  0  0  0  0  0  0
    0.0360  -14.5730   11.4180 C   0  0  0  1  0  3  0  0  0  0  0  0
    0.2801  -15.0416   13.8383 C   0  0  0  1  0  4  0  0  0  0  0  0
    0.7301  -14.2971   15.1005 C   0  0  0  1  0  4  0  0  0  0  0  0
    0.9361  -15.2975   16.2354 C   0  0  0  1  0  4  0  0  0  0  0  0
   -0.4310  -15.3357   16.8981 C   0  0  0  1  0  4  0  0  0  0  0  0
   -0.8517  -13.8753   16.8335 C   0  0  0  1  0  4  0  0  0  0  0  0
    0.2603  -12.0368   15.7395 C   0  0  0  1  0  4  0  0  0  0  0  0
   -0.8102  -10.9633   15.6083 C   0  0  0  1  0  4  0  0  0  0  0  0
   -1.6890  -10.0110    9.7860 C   0  0  0  1  0  4  0  0  0  0  0  0
   -1.2246   -9.1814   10.9852 C   0  0  0  1  0  4  0  0  0  0  0  0
    0.4939  -13.1133   12.8103 H   0  0  0  1  0  1  0  0  0  0  0  0
   -0.8760  -12.1546   12.5178 H   0  0  0  1  0  1  0  0  0  0  0  0
   -0.1360  -10.6071    7.7072 H   0  0  0  1  0  1  0  0  0  0  0  0
    2.3837  -15.7311   10.4195 H   0  0  0  1  0  1  0  0  0  0  0  0
    1.0020  -16.5194    9.6214 H   0  0  0  1  0  1  0  0  0  0  0  0
    0.7284  -15.1597   10.7375 H   0  0  0  1  0  1  0  0  0  0  0  0
    0.9599  -15.8738   13.6558 H   0  0  0  1  0  1  0  0  0  0  0  0
   -0.7292  -15.4233   13.9923 H   0  0  0  1  0  1  0  0  0  0  0  0
    1.6485  -13.7589   14.8660 H   0  0  0  1  0  1  0  0  0  0  0  0
    1.7006  -14.9510   16.9309 H   0  0  0  1  0  1  0  0  0  0  0  0
    1.2133  -16.2784   15.8492 H   0  0  0  1  0  1  0  0  0  0  0  0
   -0.3622  -15.6831   17.9289 H   0  0  0  1  0  1  0  0  0  0  0  0
   -1.1219  -15.9720   16.3450 H   0  0  0  1  0  1  0  0  0  0  0  0
   -1.9380  -13.7906   16.8619 H   0  0  0  1  0  1  0  0  0  0  0  0
   -0.4214  -13.3181   17.6656 H   0  0  0  1  0  1  0  0  0  0  0  0
    1.0291  -11.8720   14.9846 H   0  0  0  1  0  1  0  0  0  0  0  0
    0.7068  -11.9798   16.7322 H   0  0  0  1  0  1  0  0  0  0  0  0
   -0.8791  -10.4024   16.5403 H   0  0  0  1  0  1  0  0  0  0  0  0
   -1.7707  -11.4325   15.3951 H   0  0  0  1  0  1  0  0  0  0  0  0
   -0.5476  -10.2862   14.7955 H   0  0  0  1  0  1  0  0  0  0  0  0
   -2.7369  -10.2745    9.9296 H   0  0  0  1  0  1  0  0  0  0  0  0
   -1.5859   -9.4076    8.8842 H   0  0  0  1  0  1  0  0  0  0  0  0
   -0.2687   -9.5634   11.3436 H   0  0  0  1  0  1  0  0  0  0  0  0
   -1.9648   -9.2497   11.7824 H   0  0  0  1  0  1  0  0  0  0  0  0
   -1.1096   -8.1403   10.6837 H   0  0  0  1  0  1  0  0  0  0  0  0
  1  3  1  0  0  0  0
  1  5  2  0  0  0  0
  1 13  1  0  0  0  0
  2 14  1  0  0  0  0
  2 15  1  0  0  0  0
  2 24  1  0  0  0  0
  3 25  1  0  0  0  0
  4 10  1  0  0  0  0
  5  8  1  0  0  0  0
  5 22  1  0  0  0  0
  6 16  1  0  0  0  0
  6 19  1  0  0  0  0
  6 20  1  0  0  0  0
  7 11  1  0  0  0  0
  7 12  1  0  0  0  0
  8 10  2  0  0  0  0
  8 26  1  0  0  0  0
  9 14  2  0  0  0  0
 10 11  1  0  0  0  0
 11 13  2  0  0  0  0
 12 27  1  0  0  0  0
 12 28  1  0  0  0  0
 12 29  1  0  0  0  0
 13 14  1  0  0  0  0
 15 16  1  0  0  0  0
 15 30  1  0  0  0  0
 15 31  1  0  0  0  0
 16 17  1  0  0  0  0
 16 32  1  0  0  0  0
 17 18  1  0  0  0  0
 17 33  1  0  0  0  0
 17 34  1  0  0  0  0
 18 19  1  0  0  0  0
 18 35  1  0  0  0  0
 18 36  1  0  0  0  0
 19 37  1  0  0  0  0
 19 38  1  0  0  0  0
 20 21  1  0  0  0  0
 20 39  1  0  0  0  0
 20 40  1  0  0  0  0
 21 41  1  0  0  0  0
 21 42  1  0  0  0  0
 21 43  1  0  0  0  0
 22 23  1  0  0  0  0
 22 44  1  0  0  0  0
 22 45  1  0  0  0  0
 23 46  1  0  0  0  0
 23 47  1  0  0  0  0
 23 48  1  0  0  0  0
M  END
> <ConfScore>
-0.279257 

$$$$
3PBL_ETQ_A_1200
  RCSB PDB10041311333D
Coordinates from PDB:3PBL:A:1200 Model:1 without hydrogens
 48 49  0  0  0  0  0  0  0  0999 V2000
   -0.8080  -12.3360   10.5520 C   0  0  0  1  0  3  0  0  0  0  0  0
   -1.1355  -15.0847   11.8021 N   0  0  0  1  0  3  0  0  0  0  0  0
   -1.5290  -12.2300   11.6990 O   0  0  0  1  0  2  0  0  0  0  0  0
    1.6090  -12.6560    6.7620 Cl  0  0  0  1  0  1  0  0  0  0  0  0
   -0.8770  -11.3050    9.6070 C   0  0  0  1  0  3  0  0  0  0  0  0
   -3.2017  -17.2447   12.4302 N   0  0  0  1  0  3  0  0  0  0  0  0
    1.5050  -14.6500    8.8870 O   0  0  0  1  0  2  0  0  0  0  0  0
   -0.1100  -11.4090    8.4450 C   0  0  0  1  0  3  0  0  0  0  0  0
    1.1194  -14.9720   11.8400 O   0  0  0  1  0  1  0  0  0  0  0  0
    0.6880  -12.5280    8.2200 C   0  0  0  1  0  3  0  0  0  0  0  0
    0.7350  -13.5620    9.1540 C   0  0  0  1  0  3  0  0  0  0  0  0
    1.3984  -15.5703    9.9821 C   0  0  0  1  0  4  0  0  0  0  0  0
   -0.0250  -13.4780   10.3280 C   0  0  0  1  0  3  0  0  0  0  0  0
    0.0360  -14.5730   11.4180 C   0  0  0  1  0  3  0  0  0  0  0  0
   -1.3428  -15.7638   13.0967 C   0  0  0  1  0  4  0  0  0  0  0  0
   -2.8184  -16.1207   13.3089 C   0  0  0  1  0  4  0  0  0  0  0  0
   -3.0241  -16.6040   14.7426 C   0  0  0  1  0  4  0  0  0  0  0  0
   -2.8093  -18.1037   14.6226 C   0  0  0  1  0  4  0  0  0  0  0  0
   -3.4796  -18.4110   13.2921 C   0  0  0  1  0  4  0  0  0  0  0  0
   -4.4134  -16.8725   11.6877 C   0  0  0  1  0  4  0  0  0  0  0  0
   -4.5083  -17.6733   10.3973 C   0  0  0  1  0  4  0  0  0  0  0  0
   -1.6890  -10.0110    9.7860 C   0  0  0  1  0  4  0  0  0  0  0  0
   -1.2246   -9.1814   10.9852 C   0  0  0  1  0  4  0  0  0  0  0  0
   -1.9687  -14.9983   11.1364 H   0  0  0  1  0  1  0  0  0  0  0  0
   -0.8760  -12.1546   12.5178 H   0  0  0  1  0  1  0  0  0  0  0  0
   -0.1360  -10.6071    7.7072 H   0  0  0  1  0  1  0  0  0  0  0  0
    2.3837  -15.7311   10.4195 H   0  0  0  1  0  1  0  0  0  0  0  0
    1.0020  -16.5194    9.6214 H   0  0  0  1  0  1  0  0  0  0  0  0
    0.7284  -15.1597   10.7375 H   0  0  0  1  0  1  0  0  0  0  0  0
   -1.0185  -15.1024   13.9002 H   0  0  0  1  0  1  0  0  0  0  0  0
   -0.7501  -16.6783   13.1166 H   0  0  0  1  0  1  0  0  0  0  0  0
   -3.4149  -15.2343   13.0931 H   0  0  0  1  0  1  0  0  0  0  0  0
   -4.0312  -16.3780   15.0929 H   0  0  0  1  0  1  0  0  0  0  0  0
   -2.2949  -16.1553   15.4172 H   0  0  0  1  0  1  0  0  0  0  0  0
   -3.2894  -18.6397   15.4413 H   0  0  0  1  0  1  0  0  0  0  0  0
   -1.7481  -18.3514   14.5983 H   0  0  0  1  0  1  0  0  0  0  0  0
   -3.0593  -19.3165   12.8544 H   0  0  0  1  0  1  0  0  0  0  0  0
   -4.5538  -18.5370   13.4273 H   0  0  0  1  0  1  0  0  0  0  0  0
   -4.3768  -15.8095   11.4493 H   0  0  0  1  0  1  0  0  0  0  0  0
   -5.2894  -17.0773   12.3032 H   0  0  0  1  0  1  0  0  0  0  0  0
   -3.6731  -18.3713   10.3400 H   0  0  0  1  0  1  0  0  0  0  0  0
   -4.4732  -16.9944    9.5453 H   0  0  0  1  0  1  0  0  0  0  0  0
   -5.4466  -18.2278   10.3823 H   0  0  0  1  0  1  0  0  0  0  0  0
   -2.7369  -10.2745    9.9296 H   0  0  0  1  0  1  0  0  0  0  0  0
   -1.5859   -9.4076    8.8842 H   0  0  0  1  0  1  0  0  0  0  0  0
   -0.2687   -9.5634   11.3436 H   0  0  0  1  0  1  0  0  0  0  0  0
   -1.9648   -9.2497   11.7824 H   0  0  0  1  0  1  0  0  0  0  0  0
   -1.1096   -8.1403   10.6837 H   0  0  0  1  0  1  0  0  0  0  0  0
  1  3  1  0  0  0  0
  1  5  2  0  0  0  0
  1 13  1  0  0  0  0
  2 14  1  0  0  0  0
  2 15  1  0  0  0  0
  2 24  1  0  0  0  0
  3 25  1  0  0  0  0
  4 10  1  0  0  0  0
  5  8  1  0  0  0  0
  5 22  1  0  0  0  0
  6 16  1  0  0  0  0
  6 19  1  0  0  0  0
  6 20  1  0  0  0  0
  7 11  1  0  0  0  0
  7 12  1  0  0  0  0
  8 10  2  0  0  0  0
  8 26  1  0  0  0  0
  9 14  2  0  0  0  0
 10 11  1  0  0  0  0
 11 13  2  0  0  0  0
 12 27  1  0  0  0  0
 12 28  1  0  0  0  0
 12 29  1  0  0  0  0
 13 14  1  0  0  0  0
 15 16  1  0  0  0  0
 15 30  1  0  0  0  0
 15 31  1  0  0  0  0
 16 17  1  0  0  0  0
 16 32  1  0  0  0  0
 17 18  1  0  0  0  0
 17 33  1  0  0  0  0
 17 34  1  0  0  0  0
 18 19  1  0  0  0  0
 18 35  1  0  0  0  0
 18 36  1  0  0  0  0
 19 37  1  0  0  0  0
 19 38  1  0  0  0  0
 20 21  1  0  0  0  0
 20 39  1  0  0  0  0
 20 40  1  0  0  0  0
 21 41  1  0  0  0  0
 21 42  1  0  0  0  0
 21 43  1  0  0  0  0
 22 23  1  0  0  0  0
 22 44  1  0  0  0  0
 22 45  1  0  0  0  0
 23 46  1  0  0  0  0
 23 47  1  0  0  0  0
 23 48  1  0  0  0  0
M  END
> <ConfScore>
-0.0238397 

$$$$
3PBL_ETQ_A_1200
  RCSB PDB10041311333D
Coordinates from PDB:3PBL:A:1200 Model:1 without hydrogens
 48 49  0  0  0  0  0  0  0  0999 V2000
   -0.8080  -12.3360   10.5520 C   0  0  0  1  0  3  0  0  0  0  0  0
    0.8949  -15.5712   11.1997 N   0  0  0  1  0  3  0  0  0  0  0  0
   -1.5290  -12.2300   11.6990 O   0  0  0  1  0  2  0  0  0  0  0  0
    1.6090  -12.6560    6.7620 Cl  0  0  0  1  0  1  0  0  0  0  0  0
   -0.8770  -11.3050    9.6070 C   0  0  0  1  0  3  0  0  0  0  0  0
    3.4634  -17.1984   11.4898 N   0  0  0  1  0  3  0  0  0  0  0  0
    1.5050  -14.6500    8.8870 O   0  0  0  1  0  2  0  0  0  0  0  0
   -0.1100  -11.4090    8.4450 C   0  0  0  1  0  3  0  0  0  0  0  0
   -0.6334  -14.4687   12.4438 O   0  0  0  1  0  1  0  0  0  0  0  0
    0.6880  -12.5280    8.2200 C   0  0  0  1  0  3  0  0  0  0  0  0
    0.7350  -13.5620    9.1540 C   0  0  0  1  0  3  0  0  0  0  0  0
    2.1412  -14.4637    7.6150 C   0  0  0  1  0  4  0  0  0  0  0  0
   -0.0250  -13.4780   10.3280 C   0  0  0  1  0  3  0  0  0  0  0  0
    0.0360  -14.5730   11.4180 C   0  0  0  1  0  3  0  0  0  0  0  0
    1.1566  -16.6488   12.1747 C   0  0  0  1  0  4  0  0  0  0  0  0
    2.0841  -17.7186   11.5875 C   0  0  0  1  0  4  0  0  0  0  0  0
    2.1408  -18.9172   12.5317 C   0  0  0  1  0  4  0  0  0  0  0  0
    3.3146  -18.5750   13.4342 C   0  0  0  1  0  4  0  0  0  0  0  0
    4.2937  -17.9501   12.4520 C   0  0  0  1  0  4  0  0  0  0  0  0
    3.9570  -17.4207   10.1240 C   0  0  0  1  0  4  0  0  0  0  0  0
    5.0592  -16.4253    9.7928 C   0  0  0  1  0  4  0  0  0  0  0  0
   -1.6890  -10.0110    9.7860 C   0  0  0  1  0  4  0  0  0  0  0  0
   -2.9672  -10.2217   10.6006 C   0  0  0  1  0  4  0  0  0  0  0  0
    1.4219  -15.5916   10.2687 H   0  0  0  1  0  1  0  0  0  0  0  0
   -0.8760  -12.1546   12.5178 H   0  0  0  1  0  1  0  0  0  0  0  0
   -0.1360  -10.6071    7.7072 H   0  0  0  1  0  1  0  0  0  0  0  0
    3.1882  -14.7588    7.6851 H   0  0  0  1  0  1  0  0  0  0  0  0
    2.0784  -13.4140    7.3279 H   0  0  0  1  0  1  0  0  0  0  0  0
    1.6406  -15.0765    6.8654 H   0  0  0  1  0  1  0  0  0  0  0  0
    0.2104  -17.1132   12.4527 H   0  0  0  1  0  1  0  0  0  0  0  0
    1.6254  -16.2199   13.0603 H   0  0  0  1  0  1  0  0  0  0  0  0
    1.7004  -17.9967   10.6059 H   0  0  0  1  0  1  0  0  0  0  0  0
    2.3229  -19.8414   11.9832 H   0  0  0  1  0  1  0  0  0  0  0  0
    1.2183  -19.0100   13.1048 H   0  0  0  1  0  1  0  0  0  0  0  0
    3.7331  -19.4692   13.8963 H   0  0  0  1  0  1  0  0  0  0  0  0
    3.0247  -17.8663   14.2100 H   0  0  0  1  0  1  0  0  0  0  0  0
    4.9771  -17.2782   12.9713 H   0  0  0  1  0  1  0  0  0  0  0  0
    4.8644  -18.7242   11.9389 H   0  0  0  1  0  1  0  0  0  0  0  0
    3.1348  -17.2944    9.4196 H   0  0  0  1  0  1  0  0  0  0  0  0
    4.3516  -18.4337   10.0447 H   0  0  0  1  0  1  0  0  0  0  0  0
    5.6784  -16.2613   10.6748 H   0  0  0  1  0  1  0  0  0  0  0  0
    4.6136  -15.4806    9.4813 H   0  0  0  1  0  1  0  0  0  0  0  0
    5.6750  -16.8209    8.9852 H   0  0  0  1  0  1  0  0  0  0  0  0
   -1.9622   -9.6322    8.8011 H   0  0  0  1  0  1  0  0  0  0  0  0
   -1.0666   -9.2773   10.2982 H   0  0  0  1  0  1  0  0  0  0  0  0
   -2.7977   -9.9092   11.6310 H   0  0  0  1  0  1  0  0  0  0  0  0
   -3.2402  -11.2768   10.5815 H   0  0  0  1  0  1  0  0  0  0  0  0
   -3.7743   -9.6292   10.1696 H   0  0  0  1  0  1  0  0  0  0  0  0
  1  3  1  0  0  0  0
  1  5  2  0  0  0  0
  1 13  1  0  0  0  0
  2 14  1  0  0  0  0
  2 15  1  0  0  0  0
  2 24  1  0  0  0  0
  3 25  1  0  0  0  0
  4 10  1  0  0  0  0
  5  8  1  0  0  0  0
  5 22  1  0  0  0  0
  6 16  1  0  0  0  0
  6 19  1  0  0  0  0
  6 20  1  0  0  0  0
  7 11  1  0  0  0  0
  7 12  1  0  0  0  0
  8 10  2  0  0  0  0
  8 26  1  0  0  0  0
  9 14  2  0  0  0  0
 10 11  1  0  0  0  0
 11 13  2  0  0  0  0
 12 27  1  0  0  0  0
 12 28  1  0  0  0  0
 12 29  1  0  0  0  0
 13 14  1  0  0  0  0
 15 16  1  0  0  0  0
 15 30  1  0  0  0  0
 15 31  1  0  0  0  0
 16 17  1  0  0  0  0
 16 32  1  0  0  0  0
 17 18  1  0  0  0  0
 17 33  1  0  0  0  0
 17 34  1  0  0  0  0
 18 19  1  0  0  0  0
 18 35  1  0  0  0  0
 18 36  1  0  0  0  0
 19 37  1  0  0  0  0
 19 38  1  0  0  0  0
 20 21  1  0  0  0  0
 20 39  1  0  0  0  0
 20 40  1  0  0  0  0
 21 41  1  0  0  0  0
 21 42  1  0  0  0  0
 21 43  1  0  0  0  0
 22 23  1  0  0  0  0
 22 44  1  0  0  0  0
 22 45  1  0  0  0  0
 23 46  1  0  0  0  0
 23 47  1  0  0  0  0
 23 48  1  0  0  0  0
M  END
> <ConfScore>
-0.660407 

$$$$
3PBL_ETQ_A_1200
  RCSB PDB10041311333D
Coordinates from PDB:3PBL:A:1200 Model:1 without hydrogens
 48 49  0  0  0  0  0  0  0  0999 V2000
   -0.8080  -12.3360   10.5520 C   0  0  0  1  0  3  0  0  0  0  0  0
    0.8137  -15.6245   11.1508 N   0  0  0  1  0  3  0  0  0  0  0  0
   -1.5290  -12.2300   11.6990 O   0  0  0  1  0  2  0  0  0  0  0  0
    1.6090  -12.6560    6.7620 Cl  0  0  0  1  0  1  0  0  0  0  0  0
   -0.8770  -11.3050    9.6070 C   0  0  0  1  0  3  0  0  0  0  0  0
    1.9434  -15.3518   13.9754 N   0  0  0  1  0  3  0  0  0  0  0  0
    1.5050  -14.6500    8.8870 O   0  0  0  1  0  2  0  0  0  0  0  0
   -0.1100  -11.4090    8.4450 C   0  0  0  1  0  3  0  0  0  0  0  0
   -0.5581  -14.4245   12.4839 O   0  0  0  1  0  1  0  0  0  0  0  0
    0.6880  -12.5280    8.2200 C   0  0  0  1  0  3  0  0  0  0  0  0
    0.7350  -13.5620    9.1540 C   0  0  0  1  0  3  0  0  0  0  0  0
    2.1412  -14.4637    7.6150 C   0  0  0  1  0  4  0  0  0  0  0  0
   -0.0250  -13.4780   10.3280 C   0  0  0  1  0  3  0  0  0  0  0  0
    0.0360  -14.5730   11.4180 C   0  0  0  1  0  3  0  0  0  0  0  0
    1.0683  -16.7150   12.1130 C   0  0  0  1  0  4  0  0  0  0  0  0
    2.2816  -16.4061   12.9975 C   0  0  0  1  0  4  0  0  0  0  0  0
    2.6487  -17.6461   13.8093 C   0  0  0  1  0  4  0  0  0  0  0  0
    1.8352  -17.4651   15.0801 C   0  0  0  1  0  4  0  0  0  0  0  0
    1.9536  -15.9673   15.3176 C   0  0  0  1  0  4  0  0  0  0  0  0
    2.9616  -14.2952   13.9029 C   0  0  0  1  0  4  0  0  0  0  0  0
    2.3890  -12.9757   14.3993 C   0  0  0  1  0  4  0  0  0  0  0  0
   -1.6890  -10.0110    9.7860 C   0  0  0  1  0  4  0  0  0  0  0  0
   -2.9672  -10.2217   10.6006 C   0  0  0  1  0  4  0  0  0  0  0  0
    1.2774  -15.6799   10.1881 H   0  0  0  1  0  1  0  0  0  0  0  0
   -0.8760  -12.1546   12.5178 H   0  0  0  1  0  1  0  0  0  0  0  0
   -0.1360  -10.6071    7.7072 H   0  0  0  1  0  1  0  0  0  0  0  0
    3.1882  -14.7588    7.6851 H   0  0  0  1  0  1  0  0  0  0  0  0
    2.0784  -13.4140    7.3279 H   0  0  0  1  0  1  0  0  0  0  0  0
    1.6406  -15.0765    6.8654 H   0  0  0  1  0  1  0  0  0  0  0  0
    1.2557  -17.6371   11.5629 H   0  0  0  1  0  1  0  0  0  0  0  0
    0.1903  -16.8414   12.7466 H   0  0  0  1  0  1  0  0  0  0  0  0
    3.1002  -16.0914   12.3503 H   0  0  0  1  0  1  0  0  0  0  0  0
    3.7165  -17.6718   14.0265 H   0  0  0  1  0  1  0  0  0  0  0  0
    2.3619  -18.5580   13.2855 H   0  0  0  1  0  1  0  0  0  0  0  0
    2.2612  -18.0325   15.9076 H   0  0  0  1  0  1  0  0  0  0  0  0
    0.7970  -17.7620   14.9318 H   0  0  0  1  0  1  0  0  0  0  0  0
    1.1105  -15.6077   15.9076 H   0  0  0  1  0  1  0  0  0  0  0  0
    2.8847  -15.7364   15.8351 H   0  0  0  1  0  1  0  0  0  0  0  0
    3.2868  -14.1798   12.8690 H   0  0  0  1  0  1  0  0  0  0  0  0
    3.8134  -14.5736   14.5233 H   0  0  0  1  0  1  0  0  0  0  0  0
    2.9746  -12.6211   15.2475 H   0  0  0  1  0  1  0  0  0  0  0  0
    1.3541  -13.1225   14.7085 H   0  0  0  1  0  1  0  0  0  0  0  0
    2.4281  -12.2384   13.5974 H   0  0  0  1  0  1  0  0  0  0  0  0
   -1.9622   -9.6322    8.8011 H   0  0  0  1  0  1  0  0  0  0  0  0
   -1.0666   -9.2773   10.2982 H   0  0  0  1  0  1  0  0  0  0  0  0
   -2.7977   -9.9092   11.6310 H   0  0  0  1  0  1  0  0  0  0  0  0
   -3.2402  -11.2768   10.5815 H   0  0  0  1  0  1  0  0  0  0  0  0
   -3.7743   -9.6292   10.1696 H   0  0  0  1  0  1  0  0  0  0  0  0
  1  3  1  0  0  0  0
  1  5  2  0  0  0  0
  1 13  1  0  0  0  0
  2 14  1  0  0  0  0
  2 15  1  0  0  0  0
  2 24  1  0  0  0  0
  3 25  1  0  0  0  0
  4 10  1  0  0  0  0
  5  8  1  0  0  0  0
  5 22  1  0  0  0  0
  6 16  1  0  0  0  0
  6 19  1  0  0  0  0
  6 20  1  0  0  0  0
  7 11  1  0  0  0  0
  7 12  1  0  0  0  0
  8 10  2  0  0  0  0
  8 26  1  0  0  0  0
  9 14  2  0  0  0  0
 10 11  1  0  0  0  0
 11 13  2  0  0  0  0
 12 27  1  0  0  0  0
 12 28  1  0  0  0  0
 12 29  1  0  0  0  0
 13 14  1  0  0  0  0
 15 16  1  0  0  0  0
 15 30  1  0  0  0  0
 15 31  1  0  0  0  0
 16 17  1  0  0  0  0
 16 32  1  0  0  0  0
 17 18  1  0  0  0  0
 17 33  1  0  0  0  0
 17 34  1  0  0  0  0
 18 19  1  0  0  0  0
 18 35  1  0  0  0  0
 18 36  1  0  0  0  0
 19 37  1  0  0  0  0
 19 38  1  0  0  0  0
 20 21  1  0  0  0  0
 20 39  1  0  0  0  0
 20 40  1  0  0  0  0
 21 41  1  0  0  0  0
 21 42  1  0  0  0  0
 21 43  1  0  0  0  0
 22 23  1  0  0  0  0
 22 44  1  0  0  0  0
 22 45  1  0  0  0  0
 23 46  1  0  0  0  0
 23 47  1  0  0  0  0
 23 48  1  0  0  0  0
M  END
> <ConfScore>
-0.620837 

$$$$
3PBL_ETQ_A_1200
  RCSB PDB10041311333D
Coordinates from PDB:3PBL:A:1200 Model:1 without hydrogens
 48 49  0  0  0  0  0  0  0  0999 V2000
   -0.8080  -12.3360   10.5520 C   0  0  0  1  0  3  0  0  0  0  0  0
   -0.7916  -14.4170   12.4537 N   0  0  0  1  0  3  0  0  0  0  0  0
   -1.5290  -12.2300   11.6990 O   0  0  0  1  0  2  0  0  0  0  0  0
    1.6090  -12.6560    6.7620 Cl  0  0  0  1  0  1  0  0  0  0  0  0
   -0.8770  -11.3050    9.6070 C   0  0  0  1  0  3  0  0  0  0  0  0
   -1.5326  -17.3643   12.1482 N   0  0  0  1  0  3  0  0  0  0  0  0
    1.5050  -14.6500    8.8870 O   0  0  0  1  0  2  0  0  0  0  0  0
   -0.1100  -11.4090    8.4450 C   0  0  0  1  0  3  0  0  0  0  0  0
    0.7685  -15.5503   11.2787 O   0  0  0  1  0  1  0  0  0  0  0  0
    0.6880  -12.5280    8.2200 C   0  0  0  1  0  3  0  0  0  0  0  0
    0.7350  -13.5620    9.1540 C   0  0  0  1  0  3  0  0  0  0  0  0
    2.1412  -14.4637    7.6150 C   0  0  0  1  0  4  0  0  0  0  0  0
   -0.0250  -13.4780   10.3280 C   0  0  0  1  0  3  0  0  0  0  0  0
    0.0360  -14.5730   11.4180 C   0  0  0  1  0  3  0  0  0  0  0  0
   -0.9392  -15.4109   13.5356 C   0  0  0  1  0  4  0  0  0  0  0  0
   -2.0185  -16.4458   13.1983 C   0  0  0  1  0  4  0  0  0  0  0  0
   -2.3006  -17.3063   14.4277 C   0  0  0  1  0  4  0  0  0  0  0  0
   -1.3229  -18.4576   14.2598 C   0  0  0  1  0  4  0  0  0  0  0  0
   -1.3781  -18.6997   12.7591 C   0  0  0  1  0  4  0  0  0  0  0  0
   -2.5296  -17.4204   11.0707 C   0  0  0  1  0  4  0  0  0  0  0  0
   -1.8695  -17.8291    9.7620 C   0  0  0  1  0  4  0  0  0  0  0  0
   -1.6890  -10.0110    9.7860 C   0  0  0  1  0  4  0  0  0  0  0  0
   -2.9672  -10.2217   10.6006 C   0  0  0  1  0  4  0  0  0  0  0  0
   -1.3793  -13.5242   12.5024 H   0  0  0  1  0  1  0  0  0  0  0  0
   -0.8760  -12.1546   12.5178 H   0  0  0  1  0  1  0  0  0  0  0  0
   -0.1360  -10.6071    7.7072 H   0  0  0  1  0  1  0  0  0  0  0  0
    3.1882  -14.7588    7.6851 H   0  0  0  1  0  1  0  0  0  0  0  0
    2.0784  -13.4140    7.3279 H   0  0  0  1  0  1  0  0  0  0  0  0
    1.6406  -15.0765    6.8654 H   0  0  0  1  0  1  0  0  0  0  0  0
   -1.2165  -14.8957   14.4552 H   0  0  0  1  0  1  0  0  0  0  0  0
    0.0119  -15.9238   13.6784 H   0  0  0  1  0  1  0  0  0  0  0  0
   -2.9088  -15.9104   12.8684 H   0  0  0  1  0  1  0  0  0  0  0  0
   -3.3307  -17.6626   14.4301 H   0  0  0  1  0  1  0  0  0  0  0  0
   -2.1042  -16.7547   15.3470 H   0  0  0  1  0  1  0  0  0  0  0  0
   -1.6474  -19.3374   14.8154 H   0  0  0  1  0  1  0  0  0  0  0  0
   -0.3196  -18.1753   14.5791 H   0  0  0  1  0  1  0  0  0  0  0  0
   -0.4574  -19.1712   12.4155 H   0  0  0  1  0  1  0  0  0  0  0  0
   -2.2278  -19.3342   12.5070 H   0  0  0  1  0  1  0  0  0  0  0  0
   -2.9861  -16.4378   10.9516 H   0  0  0  1  0  1  0  0  0  0  0  0
   -3.2976  -18.1495   11.3290 H   0  0  0  1  0  1  0  0  0  0  0  0
   -0.9035  -18.2892    9.9698 H   0  0  0  1  0  1  0  0  0  0  0  0
   -1.7249  -16.9475    9.1374 H   0  0  0  1  0  1  0  0  0  0  0  0
   -2.5073  -18.5433    9.2412 H   0  0  0  1  0  1  0  0  0  0  0  0
   -1.9622   -9.6322    8.8011 H   0  0  0  1  0  1  0  0  0  0  0  0
   -1.0666   -9.2773   10.2982 H   0  0  0  1  0  1  0  0  0  0  0  0
   -2.7977   -9.9092   11.6310 H   0  0  0  1  0  1  0  0  0  0  0  0
   -3.2402  -11.2768   10.5815 H   0  0  0  1  0  1  0  0  0  0  0  0
   -3.7743   -9.6292   10.1696 H   0  0  0  1  0  1  0  0  0  0  0  0
  1  3  1  0  0  0  0
  1  5  2  0  0  0  0
  1 13  1  0  0  0  0
  2 14  1  0  0  0  0
  2 15  1  0  0  0  0
  2 24  1  0  0  0  0
  3 25  1  0  0  0  0
  4 10  1  0  0  0  0
  5  8  1  0  0  0  0
  5 22  1  0  0  0  0
  6 16  1  0  0  0  0
  6 19  1  0  0  0  0
  6 20  1  0  0  0  0
  7 11  1  0  0  0  0
  7 12  1  0  0  0  0
  8 10  2  0  0  0  0
  8 26  1  0  0  0  0
  9 14  2  0  0  0  0
 10 11  1  0  0  0  0
 11 13  2  0  0  0  0
 12 27  1  0  0  0  0
 12 28  1  0  0  0  0
 12 29  1  0  0  0  0
 13 14  1  0  0  0  0
 15 16  1  0  0  0  0
 15 30  1  0  0  0  0
 15 31  1  0  0  0  0
 16 17  1  0  0  0  0
 16 32  1  0  0  0  0
 17 18  1  0  0  0  0
 17 33  1  0  0  0  0
 17 34  1  0  0  0  0
 18 19  1  0  0  0  0
 18 35  1  0  0  0  0
 18 36  1  0  0  0  0
 19 37  1  0  0  0  0
 19 38  1  0  0  0  0
 20 21  1  0  0  0  0
 20 39  1  0  0  0  0
 20 40  1  0  0  0  0
 21 41  1  0  0  0  0
 21 42  1  0  0  0  0
 21 43  1  0  0  0  0
 22 23  1  0  0  0  0
 22 44  1  0  0  0  0
 22 45  1  0  0  0  0
 23 46  1  0  0  0  0
 23 47  1  0  0  0  0
 23 48  1  0  0  0  0
M  END
> <ConfScore>
-0.398046 

$$$$
3PBL_ETQ_A_1200
  RCSB PDB10041311333D
Coordinates from PDB:3PBL:A:1200 Model:1 without hydrogens
 48 49  0  0  0  0  0  0  0  0999 V2000
   -0.8080  -12.3360   10.5520 C   0  0  0  1  0  3  0  0  0  0  0  0
    0.8952  -15.5710   11.1999 N   0  0  0  1  0  3  0  0  0  0  0  0
   -1.5290  -12.2300   11.6990 O   0  0  0  1  0  2  0  0  0  0  0  0
    1.6090  -12.6560    6.7620 Cl  0  0  0  1  0  1  0  0  0  0  0  0
   -0.8770  -11.3050    9.6070 C   0  0  0  1  0  3  0  0  0  0  0  0
    1.8211  -15.2426   14.0919 N   0  0  0  1  0  3  0  0  0  0  0  0
    1.5050  -14.6500    8.8870 O   0  0  0  1  0  2  0  0  0  0  0  0
   -0.1100  -11.4090    8.4450 C   0  0  0  1  0  3  0  0  0  0  0  0
   -0.6337  -14.4689   12.4436 O   0  0  0  1  0  1  0  0  0  0  0  0
    0.6880  -12.5280    8.2200 C   0  0  0  1  0  3  0  0  0  0  0  0
    0.7350  -13.5620    9.1540 C   0  0  0  1  0  3  0  0  0  0  0  0
    2.1412  -14.4637    7.6150 C   0  0  0  1  0  4  0  0  0  0  0  0
   -0.0250  -13.4780   10.3280 C   0  0  0  1  0  3  0  0  0  0  0  0
    0.0360  -14.5730   11.4180 C   0  0  0  1  0  3  0  0  0  0  0  0
    1.1569  -16.6485   12.1749 C   0  0  0  1  0  4  0  0  0  0  0  0
    2.2885  -16.2676   13.1363 C   0  0  0  1  0  4  0  0  0  0  0  0
    2.6815  -17.4861   13.9682 C   0  0  0  1  0  4  0  0  0  0  0  0
    1.7781  -17.3647   15.1842 C   0  0  0  1  0  4  0  0  0  0  0  0
    1.7845  -15.8638   15.4311 C   0  0  0  1  0  4  0  0  0  0  0  0
    2.7719  -14.1227   14.0868 C   0  0  0  1  0  4  0  0  0  0  0  0
    2.0851  -12.8453   14.5473 C   0  0  0  1  0  4  0  0  0  0  0  0
   -1.6890  -10.0110    9.7860 C   0  0  0  1  0  4  0  0  0  0  0  0
   -0.8131   -8.7561    9.7775 C   0  0  0  1  0  4  0  0  0  0  0  0
    1.4224  -15.5913   10.2690 H   0  0  0  1  0  1  0  0  0  0  0  0
   -0.8760  -12.1546   12.5178 H   0  0  0  1  0  1  0  0  0  0  0  0
   -0.1360  -10.6071    7.7072 H   0  0  0  1  0  1  0  0  0  0  0  0
    3.1882  -14.7588    7.6851 H   0  0  0  1  0  1  0  0  0  0  0  0
    2.0784  -13.4140    7.3279 H   0  0  0  1  0  1  0  0  0  0  0  0
    1.6406  -15.0765    6.8654 H   0  0  0  1  0  1  0  0  0  0  0  0
    1.4381  -17.5536   11.6366 H   0  0  0  1  0  1  0  0  0  0  0  0
    0.2500  -16.8344   12.7503 H   0  0  0  1  0  1  0  0  0  0  0  0
    3.1251  -15.8974   12.5437 H   0  0  0  1  0  1  0  0  0  0  0  0
    3.7326  -17.4447   14.2537 H   0  0  0  1  0  1  0  0  0  0  0  0
    2.4881  -18.4115   13.4256 H   0  0  0  1  0  1  0  0  0  0  0  0
    2.1856  -17.9083   16.0365 H   0  0  0  1  0  1  0  0  0  0  0  0
    0.7727  -17.7266   14.9687 H   0  0  0  1  0  1  0  0  0  0  0  0
    0.8840  -15.5622   15.9660 H   0  0  0  1  0  1  0  0  0  0  0  0
    2.6637  -15.5767   16.0079 H   0  0  0  1  0  1  0  0  0  0  0  0
    3.1549  -13.9808   13.0762 H   0  0  0  1  0  1  0  0  0  0  0  0
    3.5982  -14.3495   14.7605 H   0  0  0  1  0  1  0  0  0  0  0  0
    2.5895  -12.4601   15.4334 H   0  0  0  1  0  1  0  0  0  0  0  0
    1.0434  -13.0592   14.7866 H   0  0  0  1  0  1  0  0  0  0  0  0
    2.1303  -12.1017   13.7516 H   0  0  0  1  0  1  0  0  0  0  0  0
   -2.2175  -10.0604   10.7380 H   0  0  0  1  0  1  0  0  0  0  0  0
   -2.4108   -9.9374    8.9725 H   0  0  0  1  0  1  0  0  0  0  0  0
   -0.7229   -8.3685   10.7923 H   0  0  0  1  0  1  0  0  0  0  0  0
   -1.2691   -7.9995    9.1390 H   0  0  0  1  0  1  0  0  0  0  0  0
    0.1764   -9.0066    9.3952 H   0  0  0  1  0  1  0  0  0  0  0  0
  1  3  1  0  0  0  0
  1  5  2  0  0  0  0
  1 13  1  0  0  0  0
  2 14  1  0  0  0  0
  2 15  1  0  0  0  0
  2 24  1  0  0  0  0
  3 25  1  0  0  0  0
  4 10  1  0  0  0  0
  5  8  1  0  0  0  0
  5 22  1  0  0  0  0
  6 16  1  0  0  0  0
  6 19  1  0  0  0  0
  6 20  1  0  0  0  0
  7 11  1  0  0  0  0
  7 12  1  0  0  0  0
  8 10  2  0  0  0  0
  8 26  1  0  0  0  0
  9 14  2  0  0  0  0
 10 11  1  0  0  0  0
 11 13  2  0  0  0  0
 12 27  1  0  0  0  0
 12 28  1  0  0  0  0
 12 29  1  0  0  0  0
 13 14  1  0  0  0  0
 15 16  1  0  0  0  0
 15 30  1  0  0  0  0
 15 31  1  0  0  0  0
 16 17  1  0  0  0  0
 16 32  1  0  0  0  0
 17 18  1  0  0  0  0
 17 33  1  0  0  0  0
 17 34  1  0  0  0  0
 18 19  1  0  0  0  0
 18 35  1  0  0  0  0
 18 36  1  0  0  0  0
 19 37  1  0  0  0  0
 19 38  1  0  0  0  0
 20 21  1  0  0  0  0
 20 39  1  0  0  0  0
 20 40  1  0  0  0  0
 21 41  1  0  0  0  0
 21 42  1  0  0  0  0
 21 43  1  0  0  0  0
 22 23  1  0  0  0  0
 22 44  1  0  0  0  0
 22 45  1  0  0  0  0
 23 46  1  0  0  0  0
 23 47  1  0  0  0  0
 23 48  1  0  0  0  0
M  END
> <ConfScore>
-0.651581 

$$$$
3PBL_ETQ_A_1200
  RCSB PDB10041311333D
Coordinates from PDB:3PBL:A:1200 Model:1 without hydrogens
 48 49  0  0  0  0  0  0  0  0999 V2000
   -0.8080  -12.3360   10.5520 C   0  0  0  1  0  3  0  0  0  0  0  0
    0.8875  -15.5765   11.1949 N   0  0  0  1  0  3  0  0  0  0  0  0
   -1.5290  -12.2300   11.6990 O   0  0  0  1  0  2  0  0  0  0  0  0
    1.6090  -12.6560    6.7620 Cl  0  0  0  1  0  1  0  0  0  0  0  0
   -0.8770  -11.3050    9.6070 C   0  0  0  1  0  3  0  0  0  0  0  0
    0.5385  -17.5064    8.8534 N   0  0  0  1  0  3  0  0  0  0  0  0
    1.5050  -14.6500    8.8870 O   0  0  0  1  0  2  0  0  0  0  0  0
   -0.1100  -11.4090    8.4450 C   0  0  0  1  0  3  0  0  0  0  0  0
   -0.6265  -14.4643   12.4478 O   0  0  0  1  0  1  0  0  0  0  0  0
    0.6880  -12.5280    8.2200 C   0  0  0  1  0  3  0  0  0  0  0  0
    0.7350  -13.5620    9.1540 C   0  0  0  1  0  3  0  0  0  0  0  0
    2.1514  -14.4579    7.6210 C   0  0  0  1  0  4  0  0  0  0  0  0
   -0.0250  -13.4780   10.3280 C   0  0  0  1  0  3  0  0  0  0  0  0
    0.0360  -14.5730   11.4180 C   0  0  0  1  0  3  0  0  0  0  0  0
    1.7364  -15.6722    9.9906 C   0  0  0  1  0  4  0  0  0  0  0  0
    1.8181  -17.1150    9.4794 C   0  0  0  1  0  4  0  0  0  0  0  0
    2.8798  -17.2084    8.3861 C   0  0  0  1  0  4  0  0  0  0  0  0
    2.0806  -16.9394    7.1218 C   0  0  0  1  0  4  0  0  0  0  0  0
    0.7830  -17.6799    7.4075 C   0  0  0  1  0  4  0  0  0  0  0  0
    0.0940  -18.7776    9.4406 C   0  0  0  1  0  4  0  0  0  0  0  0
   -1.4150  -18.9212    9.3076 C   0  0  0  1  0  4  0  0  0  0  0  0
   -1.6890  -10.0110    9.7860 C   0  0  0  1  0  4  0  0  0  0  0  0
   -1.2246   -9.1814   10.9852 C   0  0  0  1  0  4  0  0  0  0  0  0
    0.9586  -16.3529   11.9277 H   0  0  0  1  0  1  0  0  0  0  0  0
   -0.8760  -12.1546   12.5178 H   0  0  0  1  0  1  0  0  0  0  0  0
   -0.1360  -10.6071    7.7072 H   0  0  0  1  0  1  0  0  0  0  0  0
    3.1989  -14.7489    7.6995 H   0  0  0  1  0  1  0  0  0  0  0  0
    2.0866  -13.4079    7.3359 H   0  0  0  1  0  1  0  0  0  0  0  0
    1.6599  -15.0710    6.8656 H   0  0  0  1  0  1  0  0  0  0  0  0
    2.7402  -15.3251   10.2356 H   0  0  0  1  0  1  0  0  0  0  0  0
    1.3144  -15.0418    9.2079 H   0  0  0  1  0  1  0  0  0  0  0  0
    2.0532  -17.7606   10.3256 H   0  0  0  1  0  1  0  0  0  0  0  0
    3.3325  -18.1997    8.3615 H   0  0  0  1  0  1  0  0  0  0  0  0
    3.6567  -16.4571    8.5274 H   0  0  0  1  0  1  0  0  0  0  0  0
    2.5822  -17.3434    6.2424 H   0  0  0  1  0  1  0  0  0  0  0  0
    1.9059  -15.8725    6.9829 H   0  0  0  1  0  1  0  0  0  0  0  0
   -0.0353  -17.2510    6.8290 H   0  0  0  1  0  1  0  0  0  0  0  0
    0.8863  -18.7371    7.1631 H   0  0  0  1  0  1  0  0  0  0  0  0
    0.3658  -18.8006   10.4960 H   0  0  0  1  0  1  0  0  0  0  0  0
    0.5809  -19.6032    8.9215 H   0  0  0  1  0  1  0  0  0  0  0  0
   -1.8751  -18.8547   10.2935 H   0  0  0  1  0  1  0  0  0  0  0  0
   -1.6498  -19.8877    8.8618 H   0  0  0  1  0  1  0  0  0  0  0  0
   -1.8009  -18.1240    8.6723 H   0  0  0  1  0  1  0  0  0  0  0  0
   -2.7369  -10.2745    9.9296 H   0  0  0  1  0  1  0  0  0  0  0  0
   -1.5859   -9.4076    8.8842 H   0  0  0  1  0  1  0  0  0  0  0  0
   -0.2687   -9.5634   11.3436 H   0  0  0  1  0  1  0  0  0  0  0  0
   -1.9648   -9.2497   11.7824 H   0  0  0  1  0  1  0  0  0  0  0  0
   -1.1096   -8.1403   10.6837 H   0  0  0  1  0  1  0  0  0  0  0  0
  1  3  1  0  0  0  0
  1  5  2  0  0  0  0
  1 13  1  0  0  0  0
  2 14  1  0  0  0  0
  2 15  1  0  0  0  0
  2 24  1  0  0  0  0
  3 25  1  0  0  0  0
  4 10  1  0  0  0  0
  5  8  1  0  0  0  0
  5 22  1  0  0  0  0
  6 16  1  0  0  0  0
  6 19  1  0  0  0  0
  6 20  1  0  0  0  0
  7 11  1  0  0  0  0
  7 12  1  0  0  0  0
  8 10  2  0  0  0  0
  8 26  1  0  0  0  0
  9 14  2  0  0  0  0
 10 11  1  0  0  0  0
 11 13  2  0  0  0  0
 12 27  1  0  0  0  0
 12 28  1  0  0  0  0
 12 29  1  0  0  0  0
 13 14  1  0  0  0  0
 15 16  1  0  0  0  0
 15 30  1  0  0  0  0
 15 31  1  0  0  0  0
 16 17  1  0  0  0  0
 16 32  1  0  0  0  0
 17 18  1  0  0  0  0
 17 33  1  0  0  0  0
 17 34  1  0  0  0  0
 18 19  1  0  0  0  0
 18 35  1  0  0  0  0
 18 36  1  0  0  0  0
 19 37  1  0  0  0  0
 19 38  1  0  0  0  0
 20 21  1  0  0  0  0
 20 39  1  0  0  0  0
 20 40  1  0  0  0  0
 21 41  1  0  0  0  0
 21 42  1  0  0  0  0
 21 43  1  0  0  0  0
 22 23  1  0  0  0  0
 22 44  1  0  0  0  0
 22 45  1  0  0  0  0
 23 46  1  0  0  0  0
 23 47  1  0  0  0  0
 23 48  1  0  0  0  0
M  END
> <ConfScore>
-0.463809 

$$$$
3PBL_ETQ_A_1200
  RCSB PDB10041311333D
Coordinates from PDB:3PBL:A:1200 Model:1 without hydrogens
 48 49  0  0  0  0  0  0  0  0999 V2000
   -0.8080  -12.3360   10.5520 C   0  0  0  1  0  3  0  0  0  0  0  0
   -0.8824  -15.5379   11.3327 N   0  0  0  1  0  3  0  0  0  0  0  0
   -1.5290  -12.2300   11.6990 O   0  0  0  1  0  2  0  0  0  0  0  0
    1.6090  -12.6560    6.7620 Cl  0  0  0  1  0  1  0  0  0  0  0  0
   -0.8770  -11.3050    9.6070 C   0  0  0  1  0  3  0  0  0  0  0  0
   -2.0260  -18.2970   10.6934 N   0  0  0  1  0  3  0  0  0  0  0  0
    1.5050  -14.6500    8.8870 O   0  0  0  1  0  2  0  0  0  0  0  0
   -0.1100  -11.4090    8.4450 C   0  0  0  1  0  3  0  0  0  0  0  0
    0.9292  -14.5621   12.2625 O   0  0  0  1  0  1  0  0  0  0  0  0
    0.6880  -12.5280    8.2200 C   0  0  0  1  0  3  0  0  0  0  0  0
    0.7350  -13.5620    9.1540 C   0  0  0  1  0  3  0  0  0  0  0  0
    2.0610  -14.5099    7.5722 C   0  0  0  1  0  4  0  0  0  0  0  0
   -0.0250  -13.4780   10.3280 C   0  0  0  1  0  3  0  0  0  0  0  0
    0.0360  -14.5730   11.4180 C   0  0  0  1  0  3  0  0  0  0  0  0
   -0.9151  -16.7129   12.2262 C   0  0  0  1  0  4  0  0  0  0  0  0
   -2.1598  -17.5711   11.9731 C   0  0  0  1  0  4  0  0  0  0  0  0
   -2.2749  -18.6347   13.0626 C   0  0  0  1  0  4  0  0  0  0  0  0
   -1.5040  -19.8029   12.4704 C   0  0  0  1  0  4  0  0  0  0  0  0
   -1.9086  -19.7354   11.0056 C   0  0  0  1  0  4  0  0  0  0  0  0
   -3.2300  -18.0579    9.8861 C   0  0  0  1  0  4  0  0  0  0  0  0
   -2.9206  -18.2479    8.4084 C   0  0  0  1  0  4  0  0  0  0  0  0
   -1.6890  -10.0110    9.7860 C   0  0  0  1  0  4  0  0  0  0  0  0
   -1.2246   -9.1814   10.9852 C   0  0  0  1  0  4  0  0  0  0  0  0
   -1.6350  -15.4555   10.5765 H   0  0  0  1  0  1  0  0  0  0  0  0
   -0.8760  -12.1546   12.5178 H   0  0  0  1  0  1  0  0  0  0  0  0
   -0.1360  -10.6071    7.7072 H   0  0  0  1  0  1  0  0  0  0  0  0
    3.1009  -14.8365    7.5802 H   0  0  0  1  0  1  0  0  0  0  0  0
    2.0110  -13.4649    7.2663 H   0  0  0  1  0  1  0  0  0  0  0  0
    1.4936  -15.1219    6.8710 H   0  0  0  1  0  1  0  0  0  0  0  0
   -0.9239  -16.3715   13.2613 H   0  0  0  1  0  1  0  0  0  0  0  0
   -0.0254  -17.3175   12.0500 H   0  0  0  1  0  1  0  0  0  0  0  0
   -3.0278  -16.9120   11.9602 H   0  0  0  1  0  1  0  0  0  0  0  0
   -3.3162  -18.9018   13.2427 H   0  0  0  1  0  1  0  0  0  0  0  0
   -1.8202  -18.2950   13.9931 H   0  0  0  1  0  1  0  0  0  0  0  0
   -1.8070  -20.7475   12.9222 H   0  0  0  1  0  1  0  0  0  0  0  0
   -0.4289  -19.6702   12.5911 H   0  0  0  1  0  1  0  0  0  0  0  0
   -1.1475  -20.2001   10.3787 H   0  0  0  1  0  1  0  0  0  0  0  0
   -2.8636  -20.2376   10.8511 H   0  0  0  1  0  1  0  0  0  0  0  0
   -3.5778  -17.0384   10.0524 H   0  0  0  1  0  1  0  0  0  0  0  0
   -4.0079  -18.7609   10.1838 H   0  0  0  1  0  1  0  0  0  0  0  0
   -2.0319  -18.8697    8.2997 H   0  0  0  1  0  1  0  0  0  0  0  0
   -2.7428  -17.2766    7.9468 H   0  0  0  1  0  1  0  0  0  0  0  0
   -3.7654  -18.7337    7.9201 H   0  0  0  1  0  1  0  0  0  0  0  0
   -2.7369  -10.2745    9.9296 H   0  0  0  1  0  1  0  0  0  0  0  0
   -1.5859   -9.4076    8.8842 H   0  0  0  1  0  1  0  0  0  0  0  0
   -0.2687   -9.5634   11.3436 H   0  0  0  1  0  1  0  0  0  0  0  0
   -1.9648   -9.2497   11.7824 H   0  0  0  1  0  1  0  0  0  0  0  0
   -1.1096   -8.1403   10.6837 H   0  0  0  1  0  1  0  0  0  0  0  0
  1  3  1  0  0  0  0
  1  5  2  0  0  0  0
  1 13  1  0  0  0  0
  2 14  1  0  0  0  0
  2 15  1  0  0  0  0
  2 24  1  0  0  0  0
  3 25  1  0  0  0  0
  4 10  1  0  0  0  0
  5  8  1  0  0  0  0
  5 22  1  0  0  0  0
  6 16  1  0  0  0  0
  6 19  1  0  0  0  0
  6 20  1  0  0  0  0
  7 11  1  0  0  0  0
  7 12  1  0  0  0  0
  8 10  2  0  0  0  0
  8 26  1  0  0  0  0
  9 14  2  0  0  0  0
 10 11  1  0  0  0  0
 11 13  2  0  0  0  0
 12 27  1  0  0  0  0
 12 28  1  0  0  0  0
 12 29  1  0  0  0  0
 13 14  1  0  0  0  0
 15 16  1  0  0  0  0
 15 30  1  0  0  0  0
 15 31  1  0  0  0  0
 16 17  1  0  0  0  0
 16 32  1  0  0  0  0
 17 18  1  0  0  0  0
 17 33  1  0  0  0  0
 17 34  1  0  0  0  0
 18 19  1  0  0  0  0
 18 35  1  0  0  0  0
 18 36  1  0  0  0  0
 19 37  1  0  0  0  0
 19 38  1  0  0  0  0
 20 21  1  0  0  0  0
 20 39  1  0  0  0  0
 20 40  1  0  0  0  0
 21 41  1  0  0  0  0
 21 42  1  0  0  0  0
 21 43  1  0  0  0  0
 22 23  1  0  0  0  0
 22 44  1  0  0  0  0
 22 45  1  0  0  0  0
 23 46  1  0  0  0  0
 23 47  1  0  0  0  0
 23 48  1  0  0  0  0
M  END
> <ConfScore>
-0.220572 

$$$$
3PBL_ETQ_A_1200
  RCSB PDB10041311333D
Coordinates from PDB:3PBL:A:1200 Model:1 without hydrogens
 48 49  0  0  0  0  0  0  0  0999 V2000
   -0.8080  -12.3360   10.5520 C   0  0  0  1  0  3  0  0  0  0  0  0
    0.9124  -15.5585   11.2115 N   0  0  0  1  0  3  0  0  0  0  0  0
   -1.5290  -12.2300   11.6990 O   0  0  0  1  0  2  0  0  0  0  0  0
    1.6090  -12.6560    6.7620 Cl  0  0  0  1  0  1  0  0  0  0  0  0
   -0.8770  -11.3050    9.6070 C   0  0  0  1  0  3  0  0  0  0  0  0
    3.4996  -17.1487   11.5377 N   0  0  0  1  0  3  0  0  0  0  0  0
    1.5050  -14.6500    8.8870 O   0  0  0  1  0  2  0  0  0  0  0  0
   -0.1100  -11.4090    8.4450 C   0  0  0  1  0  3  0  0  0  0  0  0
   -0.6497  -14.4793   12.4340 O   0  0  0  1  0  1  0  0  0  0  0  0
    0.6880  -12.5280    8.2200 C   0  0  0  1  0  3  0  0  0  0  0  0
    0.7350  -13.5620    9.1540 C   0  0  0  1  0  3  0  0  0  0  0  0
    0.7354  -15.5808    8.1132 C   0  0  0  1  0  4  0  0  0  0  0  0
   -0.0250  -13.4780   10.3280 C   0  0  0  1  0  3  0  0  0  0  0  0
    0.0360  -14.5730   11.4180 C   0  0  0  1  0  3  0  0  0  0  0  0
    1.1754  -16.6330   12.1894 C   0  0  0  1  0  4  0  0  0  0  0  0
    2.1268  -17.6888   11.6150 C   0  0  0  1  0  4  0  0  0  0  0  0
    2.1870  -18.8873   12.5591 C   0  0  0  1  0  4  0  0  0  0  0  0
    3.3426  -18.5291   13.4789 C   0  0  0  1  0  4  0  0  0  0  0  0
    4.3267  -17.8891   12.5114 C   0  0  0  1  0  4  0  0  0  0  0  0
    4.0161  -17.3625   10.1791 C   0  0  0  1  0  4  0  0  0  0  0  0
    5.1085  -16.3510    9.8647 C   0  0  0  1  0  4  0  0  0  0  0  0
   -1.6890  -10.0110    9.7860 C   0  0  0  1  0  4  0  0  0  0  0  0
   -1.5059   -9.0314    8.6246 C   0  0  0  1  0  4  0  0  0  0  0  0
    1.4530  -15.5704   10.2883 H   0  0  0  1  0  1  0  0  0  0  0  0
   -0.8760  -12.1546   12.5178 H   0  0  0  1  0  1  0  0  0  0  0  0
   -0.1360  -10.6071    7.7072 H   0  0  0  1  0  1  0  0  0  0  0  0
    1.4071  -16.2278    7.5489 H   0  0  0  1  0  1  0  0  0  0  0  0
    0.0923  -15.0348    7.4230 H   0  0  0  1  0  1  0  0  0  0  0  0
    0.1221  -16.1873    8.7796 H   0  0  0  1  0  1  0  0  0  0  0  0
    0.2321  -17.1114   12.4533 H   0  0  0  1  0  1  0  0  0  0  0  0
    1.6251  -16.1982   13.0821 H   0  0  0  1  0  1  0  0  0  0  0  0
    1.7614  -17.9716   10.6277 H   0  0  0  1  0  1  0  0  0  0  0  0
    2.3905  -19.8083   12.0127 H   0  0  0  1  0  1  0  0  0  0  0  0
    1.2577  -18.9940   13.1187 H   0  0  0  1  0  1  0  0  0  0  0  0
    3.7672  -19.4175   13.9463 H   0  0  0  1  0  1  0  0  0  0  0  0
    3.0312  -17.8253   14.2508 H   0  0  0  1  0  1  0  0  0  0  0  0
    4.9926  -17.2079   13.0410 H   0  0  0  1  0  1  0  0  0  0  0  0
    4.9159  -18.6544   12.0062 H   0  0  0  1  0  1  0  0  0  0  0  0
    3.2026  -17.2475    9.4629 H   0  0  0  1  0  1  0  0  0  0  0  0
    4.4265  -18.3696   10.1049 H   0  0  0  1  0  1  0  0  0  0  0  0
    5.7129  -16.1794   10.7555 H   0  0  0  1  0  1  0  0  0  0  0  0
    4.6539  -15.4123    9.5481 H   0  0  0  1  0  1  0  0  0  0  0  0
    5.7413  -16.7366    9.0654 H   0  0  0  1  0  1  0  0  0  0  0  0
   -1.3687   -9.5234   10.7067 H   0  0  0  1  0  1  0  0  0  0  0  0
   -2.7452  -10.2700    9.8599 H   0  0  0  1  0  1  0  0  0  0  0  0
   -1.8760   -9.6892    7.8382 H   0  0  0  1  0  1  0  0  0  0  0  0
   -0.4634   -8.7499    8.4767 H   0  0  0  1  0  1  0  0  0  0  0  0
   -2.1129   -8.1330    8.7371 H   0  0  0  1  0  1  0  0  0  0  0  0
  1  3  1  0  0  0  0
  1  5  2  0  0  0  0
  1 13  1  0  0  0  0
  2 14  1  0  0  0  0
  2 15  1  0  0  0  0
  2 24  1  0  0  0  0
  3 25  1  0  0  0  0
  4 10  1  0  0  0  0
  5  8  1  0  0  0  0
  5 22  1  0  0  0  0
  6 16  1  0  0  0  0
  6 19  1  0  0  0  0
  6 20  1  0  0  0  0
  7 11  1  0  0  0  0
  7 12  1  0  0  0  0
  8 10  2  0  0  0  0
  8 26  1  0  0  0  0
  9 14  2  0  0  0  0
 10 11  1  0  0  0  0
 11 13  2  0  0  0  0
 12 27  1  0  0  0  0
 12 28  1  0  0  0  0
 12 29  1  0  0  0  0
 13 14  1  0  0  0  0
 15 16  1  0  0  0  0
 15 30  1  0  0  0  0
 15 31  1  0  0  0  0
 16 17  1  0  0  0  0
 16 32  1  0  0  0  0
 17 18  1  0  0  0  0
 17 33  1  0  0  0  0
 17 34  1  0  0  0  0
 18 19  1  0  0  0  0
 18 35  1  0  0  0  0
 18 36  1  0  0  0  0
 19 37  1  0  0  0  0
 19 38  1  0  0  0  0
 20 21  1  0  0  0  0
 20 39  1  0  0  0  0
 20 40  1  0  0  0  0
 21 41  1  0  0  0  0
 21 42  1  0  0  0  0
 21 43  1  0  0  0  0
 22 23  1  0  0  0  0
 22 44  1  0  0  0  0
 22 45  1  0  0  0  0
 23 46  1  0  0  0  0
 23 47  1  0  0  0  0
 23 48  1  0  0  0  0
M  END
> <ConfScore>
-0.470633 

$$$$
3PBL_ETQ_A_1200
  RCSB PDB10041311333D
Coordinates from PDB:3PBL:A:1200 Model:1 without hydrogens
 48 49  0  0  0  0  0  0  0  0999 V2000
   -0.8080  -12.3360   10.5520 C   0  0  0  1  0  3  0  0  0  0  0  0
    0.9012  -15.5667   11.2039 N   0  0  0  1  0  3  0  0  0  0  0  0
   -1.5290  -12.2300   11.6990 O   0  0  0  1  0  2  0  0  0  0  0  0
    1.6090  -12.6560    6.7620 Cl  0  0  0  1  0  1  0  0  0  0  0  0
   -0.8770  -11.3050    9.6070 C   0  0  0  1  0  3  0  0  0  0  0  0
    3.4765  -17.1807   11.5068 N   0  0  0  1  0  3  0  0  0  0  0  0
    1.5050  -14.6500    8.8870 O   0  0  0  1  0  2  0  0  0  0  0  0
   -0.1100  -11.4090    8.4450 C   0  0  0  1  0  3  0  0  0  0  0  0
   -0.6392  -14.4725   12.4403 O   0  0  0  1  0  1  0  0  0  0  0  0
    0.6880  -12.5280    8.2200 C   0  0  0  1  0  3  0  0  0  0  0  0
    0.7350  -13.5620    9.1540 C   0  0  0  1  0  3  0  0  0  0  0  0
    2.0610  -14.5099    7.5722 C   0  0  0  1  0  4  0  0  0  0  0  0
   -0.0250  -13.4780   10.3280 C   0  0  0  1  0  3  0  0  0  0  0  0
    0.0360  -14.5730   11.4180 C   0  0  0  1  0  3  0  0  0  0  0  0
    1.1633  -16.6432   12.1799 C   0  0  0  1  0  4  0  0  0  0  0  0
    2.0995  -17.7080   11.5972 C   0  0  0  1  0  4  0  0  0  0  0  0
    2.1574  -18.9066   12.5414 C   0  0  0  1  0  4  0  0  0  0  0  0
    3.3248  -18.5587   13.4501 C   0  0  0  1  0  4  0  0  0  0  0  0
    4.3057  -17.9284   12.4732 C   0  0  0  1  0  4  0  0  0  0  0  0
    3.9783  -17.4000   10.1436 C   0  0  0  1  0  4  0  0  0  0  0  0
    5.0770  -16.3988    9.8184 C   0  0  0  1  0  4  0  0  0  0  0  0
   -1.6890  -10.0110    9.7860 C   0  0  0  1  0  4  0  0  0  0  0  0
   -1.5189   -9.0385    8.6168 C   0  0  0  1  0  4  0  0  0  0  0  0
    1.4330  -15.5841   10.2756 H   0  0  0  1  0  1  0  0  0  0  0  0
   -0.8760  -12.1546   12.5178 H   0  0  0  1  0  1  0  0  0  0  0  0
   -0.1360  -10.6071    7.7072 H   0  0  0  1  0  1  0  0  0  0  0  0
    3.1009  -14.8365    7.5802 H   0  0  0  1  0  1  0  0  0  0  0  0
    2.0110  -13.4649    7.2663 H   0  0  0  1  0  1  0  0  0  0  0  0
    1.4936  -15.1219    6.8710 H   0  0  0  1  0  1  0  0  0  0  0  0
    0.2182  -17.1126   12.4529 H   0  0  0  1  0  1  0  0  0  0  0  0
    1.6254  -16.2121   13.0681 H   0  0  0  1  0  1  0  0  0  0  0  0
    1.7223  -17.9879   10.6136 H   0  0  0  1  0  1  0  0  0  0  0  0
    2.3472  -19.8297   11.9937 H   0  0  0  1  0  1  0  0  0  0  0  0
    1.2324  -19.0044   13.1097 H   0  0  0  1  0  1  0  0  0  0  0  0
    3.7455  -19.4508   13.9141 H   0  0  0  1  0  1  0  0  0  0  0  0
    3.0272  -17.8517   14.2245 H   0  0  0  1  0  1  0  0  0  0  0  0
    4.9828  -17.2531   12.9962 H   0  0  0  1  0  1  0  0  0  0  0  0
    4.8830  -18.6993   11.9629 H   0  0  0  1  0  1  0  0  0  0  0  0
    3.1592  -17.2777    9.4349 H   0  0  0  1  0  1  0  0  0  0  0  0
    4.3786  -18.4109   10.0661 H   0  0  0  1  0  1  0  0  0  0  0  0
    5.6910  -16.2321   10.7035 H   0  0  0  1  0  1  0  0  0  0  0  0
    4.6282  -15.4562    9.5051 H   0  0  0  1  0  1  0  0  0  0  0  0
    5.6990  -16.7909    9.0137 H   0  0  0  1  0  1  0  0  0  0  0  0
   -1.3602   -9.5172   10.7004 H   0  0  0  1  0  1  0  0  0  0  0  0
   -2.7440  -10.2710    9.8721 H   0  0  0  1  0  1  0  0  0  0  0  0
   -1.9144   -9.6901    7.8376 H   0  0  0  1  0  1  0  0  0  0  0  0
   -0.4760   -8.7716    8.4461 H   0  0  0  1  0  1  0  0  0  0  0  0
   -2.1109   -8.1316    8.7406 H   0  0  0  1  0  1  0  0  0  0  0  0
  1  3  1  0  0  0  0
  1  5  2  0  0  0  0
  1 13  1  0  0  0  0
  2 14  1  0  0  0  0
  2 15  1  0  0  0  0
  2 24  1  0  0  0  0
  3 25  1  0  0  0  0
  4 10  1  0  0  0  0
  5  8  1  0  0  0  0
  5 22  1  0  0  0  0
  6 16  1  0  0  0  0
  6 19  1  0  0  0  0
  6 20  1  0  0  0  0
  7 11  1  0  0  0  0
  7 12  1  0  0  0  0
  8 10  2  0  0  0  0
  8 26  1  0  0  0  0
  9 14  2  0  0  0  0
 10 11  1  0  0  0  0
 11 13  2  0  0  0  0
 12 27  1  0  0  0  0
 12 28  1  0  0  0  0
 12 29  1  0  0  0  0
 13 14  1  0  0  0  0
 15 16  1  0  0  0  0
 15 30  1  0  0  0  0
 15 31  1  0  0  0  0
 16 17  1  0  0  0  0
 16 32  1  0  0  0  0
 17 18  1  0  0  0  0
 17 33  1  0  0  0  0
 17 34  1  0  0  0  0
 18 19  1  0  0  0  0
 18 35  1  0  0  0  0
 18 36  1  0  0  0  0
 19 37  1  0  0  0  0
 19 38  1  0  0  0  0
 20 21  1  0  0  0  0
 20 39  1  0  0  0  0
 20 40  1  0  0  0  0
 21 41  1  0  0  0  0
 21 42  1  0  0  0  0
 21 43  1  0  0  0  0
 22 23  1  0  0  0  0
 22 44  1  0  0  0  0
 22 45  1  0  0  0  0
 23 46  1  0  0  0  0
 23 47  1  0  0  0  0
 23 48  1  0  0  0  0
M  END
> <ConfScore>
-0.725893 

$$$$
3PBL_ETQ_A_1200
  RCSB PDB10041311333D
Coordinates from PDB:3PBL:A:1200 Model:1 without hydrogens
 48 49  0  0  0  0  0  0  0  0999 V2000
   -0.8080  -12.3360   10.5520 C   0  0  0  1  0  3  0  0  0  0  0  0
   -0.7972  -14.4212   12.4498 N   0  0  0  1  0  3  0  0  0  0  0  0
   -1.5290  -12.2300   11.6990 O   0  0  0  1  0  2  0  0  0  0  0  0
    1.6090  -12.6560    6.7620 Cl  0  0  0  1  0  1  0  0  0  0  0  0
   -0.8770  -11.3050    9.6070 C   0  0  0  1  0  3  0  0  0  0  0  0
   -3.2659  -14.9128   14.1797 N   0  0  0  1  0  3  0  0  0  0  0  0
    1.5050  -14.6500    8.8870 O   0  0  0  1  0  2  0  0  0  0  0  0
   -0.1100  -11.4090    8.4450 C   0  0  0  1  0  3  0  0  0  0  0  0
    0.7737  -15.5469   11.2819 O   0  0  0  1  0  1  0  0  0  0  0  0
    0.6880  -12.5280    8.2200 C   0  0  0  1  0  3  0  0  0  0  0  0
    0.7350  -13.5620    9.1540 C   0  0  0  1  0  3  0  0  0  0  0  0
    2.0610  -14.5099    7.5722 C   0  0  0  1  0  4  0  0  0  0  0  0
   -0.0250  -13.4780   10.3280 C   0  0  0  1  0  3  0  0  0  0  0  0
    0.0360  -14.5730   11.4180 C   0  0  0  1  0  3  0  0  0  0  0  0
   -0.9346  -15.4093   13.5383 C   0  0  0  1  0  4  0  0  0  0  0  0
   -1.8635  -14.8950   14.6439 C   0  0  0  1  0  4  0  0  0  0  0  0
   -1.7945  -15.8351   15.8450 C   0  0  0  1  0  4  0  0  0  0  0  0
   -2.9032  -16.8323   15.5517 C   0  0  0  1  0  4  0  0  0  0  0  0
   -3.9838  -15.9363   14.9655 C   0  0  0  1  0  4  0  0  0  0  0  0
   -3.8604  -13.5910   14.4199 C   0  0  0  1  0  4  0  0  0  0  0  0
   -5.0251  -13.3557   13.4694 C   0  0  0  1  0  4  0  0  0  0  0  0
   -1.6890  -10.0110    9.7860 C   0  0  0  1  0  4  0  0  0  0  0  0
   -0.8120   -8.7569    9.7888 C   0  0  0  1  0  4  0  0  0  0  0  0
   -1.3974  -13.5363   12.4902 H   0  0  0  1  0  1  0  0  0  0  0  0
   -0.8760  -12.1546   12.5178 H   0  0  0  1  0  1  0  0  0  0  0  0
   -0.1360  -10.6071    7.7072 H   0  0  0  1  0  1  0  0  0  0  0  0
    3.1009  -14.8365    7.5802 H   0  0  0  1  0  1  0  0  0  0  0  0
    2.0110  -13.4649    7.2663 H   0  0  0  1  0  1  0  0  0  0  0  0
    1.4936  -15.1219    6.8710 H   0  0  0  1  0  1  0  0  0  0  0  0
    0.0489  -15.6068   13.9645 H   0  0  0  1  0  1  0  0  0  0  0  0
   -1.3462  -16.3322   13.1298 H   0  0  0  1  0  1  0  0  0  0  0  0
   -1.5507  -13.8840   14.9051 H   0  0  0  1  0  1  0  0  0  0  0  0
   -1.9838  -15.2992   16.7751 H   0  0  0  1  0  1  0  0  0  0  0  0
   -0.8252  -16.3305   15.9013 H   0  0  0  1  0  1  0  0  0  0  0  0
   -3.2463  -17.3229   16.4626 H   0  0  0  1  0  1  0  0  0  0  0  0
   -2.5794  -17.5849   14.8329 H   0  0  0  1  0  1  0  0  0  0  0  0
   -4.6487  -16.5129   14.3224 H   0  0  0  1  0  1  0  0  0  0  0  0
   -4.5631  -15.4681   15.7613 H   0  0  0  1  0  1  0  0  0  0  0  0
   -3.1045  -12.8223   14.2596 H   0  0  0  1  0  1  0  0  0  0  0  0
   -4.2193  -13.5397   15.4479 H   0  0  0  1  0  1  0  0  0  0  0  0
   -5.8909  -13.0091   14.0335 H   0  0  0  1  0  1  0  0  0  0  0  0
   -5.2725  -14.2875   12.9607 H   0  0  0  1  0  1  0  0  0  0  0  0
   -4.7461  -12.6021   12.7329 H   0  0  0  1  0  1  0  0  0  0  0  0
   -2.2240  -10.0639   10.7342 H   0  0  0  1  0  1  0  0  0  0  0  0
   -2.4052   -9.9333    8.9680 H   0  0  0  1  0  1  0  0  0  0  0  0
   -0.7408   -8.3650   10.8033 H   0  0  0  1  0  1  0  0  0  0  0  0
   -1.2549   -8.0027    9.1384 H   0  0  0  1  0  1  0  0  0  0  0  0
    0.1845   -9.0100    9.4265 H   0  0  0  1  0  1  0  0  0  0  0  0
  1  3  1  0  0  0  0
  1  5  2  0  0  0  0
  1 13  1  0  0  0  0
  2 14  1  0  0  0  0
  2 15  1  0  0  0  0
  2 24  1  0  0  0  0
  3 25  1  0  0  0  0
  4 10  1  0  0  0  0
  5  8  1  0  0  0  0
  5 22  1  0  0  0  0
  6 16  1  0  0  0  0
  6 19  1  0  0  0  0
  6 20  1  0  0  0  0
  7 11  1  0  0  0  0
  7 12  1  0  0  0  0
  8 10  2  0  0  0  0
  8 26  1  0  0  0  0
  9 14  2  0  0  0  0
 10 11  1  0  0  0  0
 11 13  2  0  0  0  0
 12 27  1  0  0  0  0
 12 28  1  0  0  0  0
 12 29  1  0  0  0  0
 13 14  1  0  0  0  0
 15 16  1  0  0  0  0
 15 30  1  0  0  0  0
 15 31  1  0  0  0  0
 16 17  1  0  0  0  0
 16 32  1  0  0  0  0
 17 18  1  0  0  0  0
 17 33  1  0  0  0  0
 17 34  1  0  0  0  0
 18 19  1  0  0  0  0
 18 35  1  0  0  0  0
 18 36  1  0  0  0  0
 19 37  1  0  0  0  0
 19 38  1  0  0  0  0
 20 21  1  0  0  0  0
 20 39  1  0  0  0  0
 20 40  1  0  0  0  0
 21 41  1  0  0  0  0
 21 42  1  0  0  0  0
 21 43  1  0  0  0  0
 22 23  1  0  0  0  0
 22 44  1  0  0  0  0
 22 45  1  0  0  0  0
 23 46  1  0  0  0  0
 23 47  1  0  0  0  0
 23 48  1  0  0  0  0
M  END
> <ConfScore>
-0.483402 

$$$$
3PBL_ETQ_A_1200
  RCSB PDB10041311333D
Coordinates from PDB:3PBL:A:1200 Model:1 without hydrogens
 48 49  0  0  0  0  0  0  0  0999 V2000
   -0.8080  -12.3360   10.5520 C   0  0  0  1  0  3  0  0  0  0  0  0
   -0.6477  -14.3255   12.5375 N   0  0  0  1  0  3  0  0  0  0  0  0
   -1.5290  -12.2300   11.6990 O   0  0  0  1  0  2  0  0  0  0  0  0
    1.6090  -12.6560    6.7620 Cl  0  0  0  1  0  1  0  0  0  0  0  0
   -0.8770  -11.3050    9.6070 C   0  0  0  1  0  3  0  0  0  0  0  0
   -3.1740  -15.3626   13.9053 N   0  0  0  1  0  3  0  0  0  0  0  0
    1.5050  -14.6500    8.8870 O   0  0  0  1  0  2  0  0  0  0  0  0
   -0.1100  -11.4090    8.4450 C   0  0  0  1  0  3  0  0  0  0  0  0
    0.6352  -15.6260   11.2101 O   0  0  0  1  0  1  0  0  0  0  0  0
    0.6880  -12.5280    8.2200 C   0  0  0  1  0  3  0  0  0  0  0  0
    0.7350  -13.5620    9.1540 C   0  0  0  1  0  3  0  0  0  0  0  0
    2.8533  -14.3705    9.2890 C   0  0  0  1  0  4  0  0  0  0  0  0
   -0.0250  -13.4780   10.3280 C   0  0  0  1  0  3  0  0  0  0  0  0
    0.0360  -14.5730   11.4180 C   0  0  0  1  0  3  0  0  0  0  0  0
   -0.7184  -15.2659   13.6736 C   0  0  0  1  0  4  0  0  0  0  0  0
   -1.9200  -14.9612   14.5753 C   0  0  0  1  0  4  0  0  0  0  0  0
   -1.8250  -15.7967   15.8498 C   0  0  0  1  0  4  0  0  0  0  0  0
   -2.5848  -17.0592   15.4778 C   0  0  0  1  0  4  0  0  0  0  0  0
   -3.7380  -16.5011   14.6578 C   0  0  0  1  0  4  0  0  0  0  0  0
   -4.1100  -14.2308   13.9363 C   0  0  0  1  0  4  0  0  0  0  0  0
   -5.1175  -14.3481   12.8020 C   0  0  0  1  0  4  0  0  0  0  0  0
   -1.6890  -10.0110    9.7860 C   0  0  0  1  0  4  0  0  0  0  0  0
   -1.2246   -9.1814   10.9852 C   0  0  0  1  0  4  0  0  0  0  0  0
   -1.1723  -13.3963   12.6157 H   0  0  0  1  0  1  0  0  0  0  0  0
   -0.8760  -12.1546   12.5178 H   0  0  0  1  0  1  0  0  0  0  0  0
   -0.1360  -10.6071    7.7072 H   0  0  0  1  0  1  0  0  0  0  0  0
    2.8857  -14.2093   10.3665 H   0  0  0  1  0  1  0  0  0  0  0  0
    3.2066  -13.4754    8.7772 H   0  0  0  1  0  1  0  0  0  0  0  0
    3.4921  -15.2145    9.0287 H   0  0  0  1  0  1  0  0  0  0  0  0
    0.1961  -15.1825   14.2608 H   0  0  0  1  0  1  0  0  0  0  0  0
   -0.8122  -16.2813   13.2885 H   0  0  0  1  0  1  0  0  0  0  0  0
   -1.9172  -13.8930   14.7927 H   0  0  0  1  0  1  0  0  0  0  0  0
   -2.2968  -15.2871   16.6899 H   0  0  0  1  0  1  0  0  0  0  0  0
   -0.7872  -16.0208   16.0964 H   0  0  0  1  0  1  0  0  0  0  0  0
   -2.9450  -17.5808   16.3646 H   0  0  0  1  0  1  0  0  0  0  0  0
   -1.9668  -17.7335   14.8849 H   0  0  0  1  0  1  0  0  0  0  0  0
   -4.1195  -17.2584   13.9729 H   0  0  0  1  0  1  0  0  0  0  0  0
   -4.5421  -16.1640   15.3120 H   0  0  0  1  0  1  0  0  0  0  0  0
   -3.5528  -13.3003   13.8275 H   0  0  0  1  0  1  0  0  0  0  0  0
   -4.6398  -14.2283   14.8889 H   0  0  0  1  0  1  0  0  0  0  0  0
   -6.1178  -14.1382   13.1806 H   0  0  0  1  0  1  0  0  0  0  0  0
   -5.0884  -15.3583   12.3936 H   0  0  0  1  0  1  0  0  0  0  0  0
   -4.8679  -13.6319   12.0192 H   0  0  0  1  0  1  0  0  0  0  0  0
   -2.7369  -10.2745    9.9296 H   0  0  0  1  0  1  0  0  0  0  0  0
   -1.5859   -9.4076    8.8842 H   0  0  0  1  0  1  0  0  0  0  0  0
   -0.2687   -9.5634   11.3436 H   0  0  0  1  0  1  0  0  0  0  0  0
   -1.9648   -9.2497   11.7824 H   0  0  0  1  0  1  0  0  0  0  0  0
   -1.1096   -8.1403   10.6837 H   0  0  0  1  0  1  0  0  0  0  0  0
  1  3  1  0  0  0  0
  1  5  2  0  0  0  0
  1 13  1  0  0  0  0
  2 14  1  0  0  0  0
  2 15  1  0  0  0  0
  2 24  1  0  0  0  0
  3 25  1  0  0  0  0
  4 10  1  0  0  0  0
  5  8  1  0  0  0  0
  5 22  1  0  0  0  0
  6 16  1  0  0  0  0
  6 19  1  0  0  0  0
  6 20  1  0  0  0  0
  7 11  1  0  0  0  0
  7 12  1  0  0  0  0
  8 10  2  0  0  0  0
  8 26  1  0  0  0  0
  9 14  2  0  0  0  0
 10 11  1  0  0  0  0
 11 13  2  0  0  0  0
 12 27  1  0  0  0  0
 12 28  1  0  0  0  0
 12 29  1  0  0  0  0
 13 14  1  0  0  0  0
 15 16  1  0  0  0  0
 15 30  1  0  0  0  0
 15 31  1  0  0  0  0
 16 17  1  0  0  0  0
 16 32  1  0  0  0  0
 17 18  1  0  0  0  0
 17 33  1  0  0  0  0
 17 34  1  0  0  0  0
 18 19  1  0  0  0  0
 18 35  1  0  0  0  0
 18 36  1  0  0  0  0
 19 37  1  0  0  0  0
 19 38  1  0  0  0  0
 20 21  1  0  0  0  0
 20 39  1  0  0  0  0
 20 40  1  0  0  0  0
 21 41  1  0  0  0  0
 21 42  1  0  0  0  0
 21 43  1  0  0  0  0
 22 23  1  0  0  0  0
 22 44  1  0  0  0  0
 22 45  1  0  0  0  0
 23 46  1  0  0  0  0
 23 47  1  0  0  0  0
 23 48  1  0  0  0  0
M  END
> <ConfScore>
-0.282977 

$$$$
3PBL_ETQ_A_1200
  RCSB PDB10041311333D
Coordinates from PDB:3PBL:A:1200 Model:1 without hydrogens
 48 49  0  0  0  0  0  0  0  0999 V2000
   -0.8080  -12.3360   10.5520 C   0  0  0  1  0  3  0  0  0  0  0  0
    1.2422  -14.8223   11.9327 N   0  0  0  1  0  3  0  0  0  0  0  0
   -1.5290  -12.2300   11.6990 O   0  0  0  1  0  2  0  0  0  0  0  0
    1.6090  -12.6560    6.7620 Cl  0  0  0  1  0  1  0  0  0  0  0  0
   -0.8770  -11.3050    9.6070 C   0  0  0  1  0  3  0  0  0  0  0  0
    2.6961  -14.3646   14.5795 N   0  0  0  1  0  3  0  0  0  0  0  0
    1.5050  -14.6500    8.8870 O   0  0  0  1  0  2  0  0  0  0  0  0
   -0.1100  -11.4090    8.4450 C   0  0  0  1  0  3  0  0  0  0  0  0
   -0.9931  -15.1187   11.8109 O   0  0  0  1  0  1  0  0  0  0  0  0
    0.6880  -12.5280    8.2200 C   0  0  0  1  0  3  0  0  0  0  0  0
    0.7350  -13.5620    9.1540 C   0  0  0  1  0  3  0  0  0  0  0  0
    2.8533  -14.3705    9.2890 C   0  0  0  1  0  4  0  0  0  0  0  0
   -0.0250  -13.4780   10.3280 C   0  0  0  1  0  3  0  0  0  0  0  0
    0.0360  -14.5730   11.4180 C   0  0  0  1  0  3  0  0  0  0  0  0
    1.4846  -15.8187   12.9950 C   0  0  0  1  0  4  0  0  0  0  0  0
    2.8130  -15.5556   13.7133 C   0  0  0  1  0  4  0  0  0  0  0  0
    3.1346  -16.7297   14.6350 C   0  0  0  1  0  4  0  0  0  0  0  0
    2.4883  -16.3113   15.9453 C   0  0  0  1  0  4  0  0  0  0  0  0
    2.7884  -14.8204   15.9809 C   0  0  0  1  0  4  0  0  0  0  0  0
    3.8054  -13.4498   14.2779 C   0  0  0  1  0  4  0  0  0  0  0  0
    3.4320  -12.0245   14.6578 C   0  0  0  1  0  4  0  0  0  0  0  0
   -1.6890  -10.0110    9.7860 C   0  0  0  1  0  4  0  0  0  0  0  0
   -1.2246   -9.1814   10.9852 C   0  0  0  1  0  4  0  0  0  0  0  0
    2.0778  -14.2707   11.5553 H   0  0  0  1  0  1  0  0  0  0  0  0
   -0.8760  -12.1546   12.5178 H   0  0  0  1  0  1  0  0  0  0  0  0
   -0.1360  -10.6071    7.7072 H   0  0  0  1  0  1  0  0  0  0  0  0
    2.8857  -14.2093   10.3665 H   0  0  0  1  0  1  0  0  0  0  0  0
    3.2066  -13.4754    8.7772 H   0  0  0  1  0  1  0  0  0  0  0  0
    3.4921  -15.2145    9.0287 H   0  0  0  1  0  1  0  0  0  0  0  0
    1.5131  -16.8129   12.5492 H   0  0  0  1  0  1  0  0  0  0  0  0
    0.6728  -15.7684   13.7206 H   0  0  0  1  0  1  0  0  0  0  0  0
    3.5844  -15.4146   12.9562 H   0  0  0  1  0  1  0  0  0  0  0  0
    4.2111  -16.8555   14.7502 H   0  0  0  1  0  1  0  0  0  0  0  0
    2.6982  -17.6552   14.2594 H   0  0  0  1  0  1  0  0  0  0  0  0
    2.9404  -16.8269   16.7925 H   0  0  0  1  0  1  0  0  0  0  0  0
    1.4147  -16.4994   15.9355 H   0  0  0  1  0  1  0  0  0  0  0  0
    2.0573  -14.2998   16.5994 H   0  0  0  1  0  1  0  0  0  0  0  0
    3.7895  -14.6430   16.3737 H   0  0  0  1  0  1  0  0  0  0  0  0
    4.0260  -13.4915   13.2113 H   0  0  0  1  0  1  0  0  0  0  0  0
    4.6860  -13.7538   14.8437 H   0  0  0  1  0  1  0  0  0  0  0  0
    4.1313  -11.6525   15.4066 H   0  0  0  1  0  1  0  0  0  0  0  0
    2.4214  -12.0104   15.0661 H   0  0  0  1  0  1  0  0  0  0  0  0
    3.4758  -11.3895   13.7729 H   0  0  0  1  0  1  0  0  0  0  0  0
   -2.7369  -10.2745    9.9296 H   0  0  0  1  0  1  0  0  0  0  0  0
   -1.5859   -9.4076    8.8842 H   0  0  0  1  0  1  0  0  0  0  0  0
   -0.2687   -9.5634   11.3436 H   0  0  0  1  0  1  0  0  0  0  0  0
   -1.9648   -9.2497   11.7824 H   0  0  0  1  0  1  0  0  0  0  0  0
   -1.1096   -8.1403   10.6837 H   0  0  0  1  0  1  0  0  0  0  0  0
  1  3  1  0  0  0  0
  1  5  2  0  0  0  0
  1 13  1  0  0  0  0
  2 14  1  0  0  0  0
  2 15  1  0  0  0  0
  2 24  1  0  0  0  0
  3 25  1  0  0  0  0
  4 10  1  0  0  0  0
  5  8  1  0  0  0  0
  5 22  1  0  0  0  0
  6 16  1  0  0  0  0
  6 19  1  0  0  0  0
  6 20  1  0  0  0  0
  7 11  1  0  0  0  0
  7 12  1  0  0  0  0
  8 10  2  0  0  0  0
  8 26  1  0  0  0  0
  9 14  2  0  0  0  0
 10 11  1  0  0  0  0
 11 13  2  0  0  0  0
 12 27  1  0  0  0  0
 12 28  1  0  0  0  0
 12 29  1  0  0  0  0
 13 14  1  0  0  0  0
 15 16  1  0  0  0  0
 15 30  1  0  0  0  0
 15 31  1  0  0  0  0
 16 17  1  0  0  0  0
 16 32  1  0  0  0  0
 17 18  1  0  0  0  0
 17 33  1  0  0  0  0
 17 34  1  0  0  0  0
 18 19  1  0  0  0  0
 18 35  1  0  0  0  0
 18 36  1  0  0  0  0
 19 37  1  0  0  0  0
 19 38  1  0  0  0  0
 20 21  1  0  0  0  0
 20 39  1  0  0  0  0
 20 40  1  0  0  0  0
 21 41  1  0  0  0  0
 21 42  1  0  0  0  0
 21 43  1  0  0  0  0
 22 23  1  0  0  0  0
 22 44  1  0  0  0  0
 22 45  1  0  0  0  0
 23 46  1  0  0  0  0
 23 47  1  0  0  0  0
 23 48  1  0  0  0  0
M  END
> <ConfScore>
-0.122605 

$$$$
3PBL_ETQ_A_1200
  RCSB PDB10041311333D
Coordinates from PDB:3PBL:A:1200 Model:1 without hydrogens
 48 49  0  0  0  0  0  0  0  0999 V2000
   -0.8080  -12.3360   10.5520 C   0  0  0  1  0  3  0  0  0  0  0  0
    1.2422  -14.8223   11.9327 N   0  0  0  1  0  3  0  0  0  0  0  0
   -1.5290  -12.2300   11.6990 O   0  0  0  1  0  2  0  0  0  0  0  0
    1.6090  -12.6560    6.7620 Cl  0  0  0  1  0  1  0  0  0  0  0  0
   -0.8770  -11.3050    9.6070 C   0  0  0  1  0  3  0  0  0  0  0  0
    2.6961  -14.3646   14.5795 N   0  0  0  1  0  3  0  0  0  0  0  0
    1.5050  -14.6500    8.8870 O   0  0  0  1  0  2  0  0  0  0  0  0
   -0.1100  -11.4090    8.4450 C   0  0  0  1  0  3  0  0  0  0  0  0
   -0.9931  -15.1187   11.8109 O   0  0  0  1  0  1  0  0  0  0  0  0
    0.6880  -12.5280    8.2200 C   0  0  0  1  0  3  0  0  0  0  0  0
    0.7350  -13.5620    9.1540 C   0  0  0  1  0  3  0  0  0  0  0  0
    0.7215  -15.6001    8.1515 C   0  0  0  1  0  4  0  0  0  0  0  0
   -0.0250  -13.4780   10.3280 C   0  0  0  1  0  3  0  0  0  0  0  0
    0.0360  -14.5730   11.4180 C   0  0  0  1  0  3  0  0  0  0  0  0
    1.4846  -15.8187   12.9950 C   0  0  0  1  0  4  0  0  0  0  0  0
    2.8130  -15.5556   13.7133 C   0  0  0  1  0  4  0  0  0  0  0  0
    3.1346  -16.7297   14.6350 C   0  0  0  1  0  4  0  0  0  0  0  0
    2.4883  -16.3113   15.9453 C   0  0  0  1  0  4  0  0  0  0  0  0
    2.7884  -14.8204   15.9809 C   0  0  0  1  0  4  0  0  0  0  0  0
    3.8054  -13.4498   14.2779 C   0  0  0  1  0  4  0  0  0  0  0  0
    3.4320  -12.0245   14.6578 C   0  0  0  1  0  4  0  0  0  0  0  0
   -1.6890  -10.0110    9.7860 C   0  0  0  1  0  4  0  0  0  0  0  0
   -1.2246   -9.1814   10.9852 C   0  0  0  1  0  4  0  0  0  0  0  0
    2.0778  -14.2707   11.5553 H   0  0  0  1  0  1  0  0  0  0  0  0
   -0.8760  -12.1546   12.5178 H   0  0  0  1  0  1  0  0  0  0  0  0
   -0.1360  -10.6071    7.7072 H   0  0  0  1  0  1  0  0  0  0  0  0
    1.3823  -16.2517    7.5798 H   0  0  0  1  0  1  0  0  0  0  0  0
    0.0549  -15.0712    7.4703 H   0  0  0  1  0  1  0  0  0  0  0  0
    0.1320  -16.1993    8.8454 H   0  0  0  1  0  1  0  0  0  0  0  0
    1.5131  -16.8129   12.5492 H   0  0  0  1  0  1  0  0  0  0  0  0
    0.6728  -15.7684   13.7206 H   0  0  0  1  0  1  0  0  0  0  0  0
    3.5844  -15.4146   12.9562 H   0  0  0  1  0  1  0  0  0  0  0  0
    4.2111  -16.8555   14.7502 H   0  0  0  1  0  1  0  0  0  0  0  0
    2.6982  -17.6552   14.2594 H   0  0  0  1  0  1  0  0  0  0  0  0
    2.9404  -16.8269   16.7925 H   0  0  0  1  0  1  0  0  0  0  0  0
    1.4147  -16.4994   15.9355 H   0  0  0  1  0  1  0  0  0  0  0  0
    2.0573  -14.2998   16.5994 H   0  0  0  1  0  1  0  0  0  0  0  0
    3.7895  -14.6430   16.3737 H   0  0  0  1  0  1  0  0  0  0  0  0
    4.0260  -13.4915   13.2113 H   0  0  0  1  0  1  0  0  0  0  0  0
    4.6860  -13.7538   14.8437 H   0  0  0  1  0  1  0  0  0  0  0  0
    4.1313  -11.6525   15.4066 H   0  0  0  1  0  1  0  0  0  0  0  0
    2.4214  -12.0104   15.0661 H   0  0  0  1  0  1  0  0  0  0  0  0
    3.4758  -11.3895   13.7729 H   0  0  0  1  0  1  0  0  0  0  0  0
   -2.7369  -10.2745    9.9296 H   0  0  0  1  0  1  0  0  0  0  0  0
   -1.5859   -9.4076    8.8842 H   0  0  0  1  0  1  0  0  0  0  0  0
   -0.2687   -9.5634   11.3436 H   0  0  0  1  0  1  0  0  0  0  0  0
   -1.9648   -9.2497   11.7824 H   0  0  0  1  0  1  0  0  0  0  0  0
   -1.1096   -8.1403   10.6837 H   0  0  0  1  0  1  0  0  0  0  0  0
  1  3  1  0  0  0  0
  1  5  2  0  0  0  0
  1 13  1  0  0  0  0
  2 14  1  0  0  0  0
  2 15  1  0  0  0  0
  2 24  1  0  0  0  0
  3 25  1  0  0  0  0
  4 10  1  0  0  0  0
  5  8  1  0  0  0  0
  5 22  1  0  0  0  0
  6 16  1  0  0  0  0
  6 19  1  0  0  0  0
  6 20  1  0  0  0  0
  7 11  1  0  0  0  0
  7 12  1  0  0  0  0
  8 10  2  0  0  0  0
  8 26  1  0  0  0  0
  9 14  2  0  0  0  0
 10 11  1  0  0  0  0
 11 13  2  0  0  0  0
 12 27  1  0  0  0  0
 12 28  1  0  0  0  0
 12 29  1  0  0  0  0
 13 14  1  0  0  0  0
 15 16  1  0  0  0  0
 15 30  1  0  0  0  0
 15 31  1  0  0  0  0
 16 17  1  0  0  0  0
 16 32  1  0  0  0  0
 17 18  1  0  0  0  0
 17 33  1  0  0  0  0
 17 34  1  0  0  0  0
 18 19  1  0  0  0  0
 18 35  1  0  0  0  0
 18 36  1  0  0  0  0
 19 37  1  0  0  0  0
 19 38  1  0  0  0  0
 20 21  1  0  0  0  0
 20 39  1  0  0  0  0
 20 40  1  0  0  0  0
 21 41  1  0  0  0  0
 21 42  1  0  0  0  0
 21 43  1  0  0  0  0
 22 23  1  0  0  0  0
 22 44  1  0  0  0  0
 22 45  1  0  0  0  0
 23 46  1  0  0  0  0
 23 47  1  0  0  0  0
 23 48  1  0  0  0  0
M  END
> <ConfScore>
-0.132091 

$$$$
3PBL_ETQ_A_1200
  RCSB PDB10041311333D
Coordinates from PDB:3PBL:A:1200 Model:1 without hydrogens
 48 49  0  0  0  0  0  0  0  0999 V2000
   -0.8080  -12.3360   10.5520 C   0  0  0  1  0  3  0  0  0  0  0  0
    0.9341  -15.5419   11.2270 N   0  0  0  1  0  3  0  0  0  0  0  0
   -1.5290  -12.2300   11.6990 O   0  0  0  1  0  2  0  0  0  0  0  0
    1.6090  -12.6560    6.7620 Cl  0  0  0  1  0  1  0  0  0  0  0  0
   -0.8770  -11.3050    9.6070 C   0  0  0  1  0  3  0  0  0  0  0  0
    3.5439  -17.0843   11.5999 N   0  0  0  1  0  3  0  0  0  0  0  0
    1.5050  -14.6500    8.8870 O   0  0  0  1  0  2  0  0  0  0  0  0
   -0.1100  -11.4090    8.4450 C   0  0  0  1  0  3  0  0  0  0  0  0
   -0.6700  -14.4932   12.4212 O   0  0  0  1  0  1  0  0  0  0  0  0
    0.6880  -12.5280    8.2200 C   0  0  0  1  0  3  0  0  0  0  0  0
    0.7350  -13.5620    9.1540 C   0  0  0  1  0  3  0  0  0  0  0  0
    2.1435  -14.4624    7.6163 C   0  0  0  1  0  4  0  0  0  0  0  0
   -0.0250  -13.4780   10.3280 C   0  0  0  1  0  3  0  0  0  0  0  0
    0.0360  -14.5730   11.4180 C   0  0  0  1  0  3  0  0  0  0  0  0
    1.1988  -16.6125   12.2087 C   0  0  0  1  0  4  0  0  0  0  0  0
    2.1801  -17.6498   11.6512 C   0  0  0  1  0  4  0  0  0  0  0  0
    2.2450  -18.8482   12.5952 C   0  0  0  1  0  4  0  0  0  0  0  0
    3.3764  -18.4697   13.5366 C   0  0  0  1  0  4  0  0  0  0  0  0
    4.3663  -17.8105   12.5882 C   0  0  0  1  0  4  0  0  0  0  0  0
    4.0894  -17.2870   10.2510 C   0  0  0  1  0  4  0  0  0  0  0  0
    5.1685  -16.2550    9.9578 C   0  0  0  1  0  4  0  0  0  0  0  0
   -1.6890  -10.0110    9.7860 C   0  0  0  1  0  4  0  0  0  0  0  0
   -2.7460   -9.8194    8.6960 C   0  0  0  1  0  4  0  0  0  0  0  0
    1.4920  -15.5427   10.3139 H   0  0  0  1  0  1  0  0  0  0  0  0
   -0.8760  -12.1546   12.5178 H   0  0  0  1  0  1  0  0  0  0  0  0
   -0.1360  -10.6071    7.7072 H   0  0  0  1  0  1  0  0  0  0  0  0
    3.1906  -14.7566    7.6883 H   0  0  0  1  0  1  0  0  0  0  0  0
    2.0802  -13.4126    7.3297 H   0  0  0  1  0  1  0  0  0  0  0  0
    1.6450  -15.0753    6.8654 H   0  0  0  1  0  1  0  0  0  0  0  0
    0.2598  -17.1085   12.4546 H   0  0  0  1  0  1  0  0  0  0  0  0
    1.6237  -16.1706   13.1099 H   0  0  0  1  0  1  0  0  0  0  0  0
    1.8384  -17.9381   10.6570 H   0  0  0  1  0  1  0  0  0  0  0  0
    2.4756  -19.7645   12.0519 H   0  0  0  1  0  1  0  0  0  0  0  0
    1.3076  -18.9727   13.1373 H   0  0  0  1  0  1  0  0  0  0  0  0
    3.8086  -19.3507   14.0111 H   0  0  0  1  0  1  0  0  0  0  0  0
    3.0378  -17.7728   14.3032 H   0  0  0  1  0  1  0  0  0  0  0  0
    5.0095  -17.1177   13.1307 H   0  0  0  1  0  1  0  0  0  0  0  0
    4.9788  -18.5642   12.0933 H   0  0  0  1  0  1  0  0  0  0  0  0
    3.2873  -17.1861    9.5198 H   0  0  0  1  0  1  0  0  0  0  0  0
    4.5197  -18.2862   10.1835 H   0  0  0  1  0  1  0  0  0  0  0  0
    5.7534  -16.0739   10.8596 H   0  0  0  1  0  1  0  0  0  0  0  0
    4.7025  -15.3242    9.6343 H   0  0  0  1  0  1  0  0  0  0  0  0
    5.8227  -16.6276    9.1695 H   0  0  0  1  0  1  0  0  0  0  0  0
   -1.0040   -9.1635    9.7597 H   0  0  0  1  0  1  0  0  0  0  0  0
   -2.1890  -10.0447   10.7539 H   0  0  0  1  0  1  0  0  0  0  0  0
   -3.7127   -9.6191    9.1579 H   0  0  0  1  0  1  0  0  0  0  0  0
   -2.8127  -10.7242    8.0919 H   0  0  0  1  0  1  0  0  0  0  0  0
   -2.4653   -8.9784    8.0619 H   0  0  0  1  0  1  0  0  0  0  0  0
  1  3  1  0  0  0  0
  1  5  2  0  0  0  0
  1 13  1  0  0  0  0
  2 14  1  0  0  0  0
  2 15  1  0  0  0  0
  2 24  1  0  0  0  0
  3 25  1  0  0  0  0
  4 10  1  0  0  0  0
  5  8  1  0  0  0  0
  5 22  1  0  0  0  0
  6 16  1  0  0  0  0
  6 19  1  0  0  0  0
  6 20  1  0  0  0  0
  7 11  1  0  0  0  0
  7 12  1  0  0  0  0
  8 10  2  0  0  0  0
  8 26  1  0  0  0  0
  9 14  2  0  0  0  0
 10 11  1  0  0  0  0
 11 13  2  0  0  0  0
 12 27  1  0  0  0  0
 12 28  1  0  0  0  0
 12 29  1  0  0  0  0
 13 14  1  0  0  0  0
 15 16  1  0  0  0  0
 15 30  1  0  0  0  0
 15 31  1  0  0  0  0
 16 17  1  0  0  0  0
 16 32  1  0  0  0  0
 17 18  1  0  0  0  0
 17 33  1  0  0  0  0
 17 34  1  0  0  0  0
 18 19  1  0  0  0  0
 18 35  1  0  0  0  0
 18 36  1  0  0  0  0
 19 37  1  0  0  0  0
 19 38  1  0  0  0  0
 20 21  1  0  0  0  0
 20 39  1  0  0  0  0
 20 40  1  0  0  0  0
 21 41  1  0  0  0  0
 21 42  1  0  0  0  0
 21 43  1  0  0  0  0
 22 23  1  0  0  0  0
 22 44  1  0  0  0  0
 22 45  1  0  0  0  0
 23 46  1  0  0  0  0
 23 47  1  0  0  0  0
 23 48  1  0  0  0  0
M  END
> <ConfScore>
-0.687848 

$$$$
3PBL_ETQ_A_1200
  RCSB PDB10041311333D
Coordinates from PDB:3PBL:A:1200 Model:1 without hydrogens
 48 49  0  0  0  0  0  0  0  0999 V2000
   -1.1351    0.8812   -2.5793 C   0  0  0  1  0  3  0  0  0  0  0  0
    0.8485    2.2620    0.2362 N   0  0  0  1  0  3  0  0  0  0  0  0
   -1.3355   -0.3790   -2.1118 O   0  0  0  1  0  2  0  0  0  0  0  0
   -0.5116    5.0694   -4.1214 Cl  0  0  0  1  0  1  0  0  0  0  0  0
   -1.7169    1.2561   -3.7965 C   0  0  0  1  0  3  0  0  0  0  0  0
    1.1946    4.3858    2.3310 N   0  0  0  1  0  3  0  0  0  0  0  0
    0.6038    3.9800   -1.6574 O   0  0  0  1  0  2  0  0  0  0  0  0
   -1.5298    2.5618   -4.2543 C   0  0  0  1  0  3  0  0  0  0  0  0
    0.1189    0.1543   -0.1164 O   0  0  0  1  0  1  0  0  0  0  0  0
   -0.7589    3.4647   -3.5262 C   0  0  0  1  0  3  0  0  0  0  0  0
   -0.1631    3.0788   -2.3263 C   0  0  0  1  0  3  0  0  0  0  0  0
    0.6148    5.2118   -2.3924 C   0  0  0  1  0  4  0  0  0  0  0  0
   -0.3389    1.7741   -1.8470 C   0  0  0  1  0  3  0  0  0  0  0  0
    0.2560    1.3157   -0.4954 C   0  0  0  1  0  3  0  0  0  0  0  0
    1.3839    2.0278    1.5921 C   0  0  0  1  0  4  0  0  0  0  0  0
    2.1233    3.2623    2.1204 C   0  0  0  1  0  4  0  0  0  0  0  0
    3.0924    3.8107    1.0754 C   0  0  0  1  0  4  0  0  0  0  0  0
    3.0645    5.2998    1.2313 C   0  0  0  1  0  4  0  0  0  0  0  0
    2.0621    5.5707    2.3412 C   0  0  0  1  0  4  0  0  0  0  0  0
    0.4886    4.2455    3.6117 C   0  0  0  1  0  4  0  0  0  0  0  0
   -0.0384    2.8270    3.7710 C   0  0  0  1  0  4  0  0  0  0  0  0
   -2.6220    0.3484   -4.6466 C   0  0  0  1  0  4  0  0  0  0  0  0
   -2.0684    0.1098   -6.0531 C   0  0  0  1  0  4  0  0  0  0  0  0
    0.9404    3.2425   -0.1822 H   0  0  0  1  0  1  0  0  0  0  0  0
   -0.7817   -1.0592   -2.6890 H   0  0  0  1  0  1  0  0  0  0  0  0
   -1.9913    2.8774   -5.1900 H   0  0  0  1  0  1  0  0  0  0  0  0
    1.4855    5.2368   -3.0476 H   0  0  0  1  0  1  0  0  0  0  0  0
    0.6599    6.0495   -1.6965 H   0  0  0  1  0  1  0  0  0  0  0  0
   -0.2927    5.2850   -2.9917 H   0  0  0  1  0  1  0  0  0  0  0  0
    2.0761    1.1864    1.5599 H   0  0  0  1  0  1  0  0  0  0  0  0
    0.5582    1.7941    2.2642 H   0  0  0  1  0  1  0  0  0  0  0  0
    2.6173    2.9353    3.0354 H   0  0  0  1  0  1  0  0  0  0  0  0
    2.7690    3.5284    0.0735 H   0  0  0  1  0  1  0  0  0  0  0  0
    4.0979    3.4297    1.2541 H   0  0  0  1  0  1  0  0  0  0  0  0
    2.7438    5.7743    0.3039 H   0  0  0  1  0  1  0  0  0  0  0  0
    4.0505    5.6726    1.5087 H   0  0  0  1  0  1  0  0  0  0  0  0
    2.5662    5.6738    3.3021 H   0  0  0  1  0  1  0  0  0  0  0  0
    1.4878    6.4734    2.1330 H   0  0  0  1  0  1  0  0  0  0  0  0
   -0.3470    4.9449    3.6401 H   0  0  0  1  0  1  0  0  0  0  0  0
    1.1766    4.4672    4.4276 H   0  0  0  1  0  1  0  0  0  0  0  0
    0.3650    2.3894    4.6841 H   0  0  0  1  0  1  0  0  0  0  0  0
    0.2689    2.2272    2.9144 H   0  0  0  1  0  1  0  0  0  0  0  0
   -1.1267    2.8484    3.8286 H   0  0  0  1  0  1  0  0  0  0  0  0
   -3.6024    0.8169   -4.7330 H   0  0  0  1  0  1  0  0  0  0  0  0
   -2.7215   -0.6135   -4.1436 H   0  0  0  1  0  1  0  0  0  0  0  0
   -2.0378    1.0539   -6.5971 H   0  0  0  1  0  1  0  0  0  0  0  0
   -2.7117   -0.5934   -6.5821 H   0  0  0  1  0  1  0  0  0  0  0  0
   -1.0613   -0.3010   -5.9820 H   0  0  0  1  0  1  0  0  0  0  0  0
  1  3  1  0  0  0  0
  1  5  2  0  0  0  0
  1 13  1  0  0  0  0
  2 14  1  0  0  0  0
  2 15  1  0  0  0  0
  2 24  1  0  0  0  0
  3 25  1  0  0  0  0
  4 10  1  0  0  0  0
  5  8  1  0  0  0  0
  5 22  1  0  0  0  0
  6 16  1  0  0  0  0
  6 19  1  0  0  0  0
  6 20  1  0  0  0  0
  7 11  1  0  0  0  0
  7 12  1  0  0  0  0
  8 10  2  0  0  0  0
  8 26  1  0  0  0  0
  9 14  2  0  0  0  0
 10 11  1  0  0  0  0
 11 13  2  0  0  0  0
 12 27  1  0  0  0  0
 12 28  1  0  0  0  0
 12 29  1  0  0  0  0
 13 14  1  0  0  0  0
 15 16  1  0  0  0  0
 15 30  1  0  0  0  0
 15 31  1  0  0  0  0
 16 17  1  0  0  0  0
 16 32  1  0  0  0  0
 17 18  1  0  0  0  0
 17 33  1  0  0  0  0
 17 34  1  0  0  0  0
 18 19  1  0  0  0  0
 18 35  1  0  0  0  0
 18 36  1  0  0  0  0
 19 37  1  0  0  0  0
 19 38  1  0  0  0  0
 20 21  1  0  0  0  0
 20 39  1  0  0  0  0
 20 40  1  0  0  0  0
 21 41  1  0  0  0  0
 21 42  1  0  0  0  0
 21 43  1  0  0  0  0
 22 23  1  0  0  0  0
 22 44  1  0  0  0  0
 22 45  1  0  0  0  0
 23 46  1  0  0  0  0
 23 47  1  0  0  0  0
 23 48  1  0  0  0  0
M  END
> <ConfScore>
-0.684358 

$$$$
3PBL_ETQ_A_1200
  RCSB PDB10041311333D
Coordinates from PDB:3PBL:A:1200 Model:1 without hydrogens
 48 49  0  0  0  0  0  0  0  0999 V2000
   -0.8080  -12.3360   10.5520 C   0  0  0  1  0  3  0  0  0  0  0  0
    0.8875  -15.5765   11.1949 N   0  0  0  1  0  3  0  0  0  0  0  0
   -1.5290  -12.2300   11.6990 O   0  0  0  1  0  2  0  0  0  0  0  0
    1.6090  -12.6560    6.7620 Cl  0  0  0  1  0  1  0  0  0  0  0  0
   -0.8770  -11.3050    9.6070 C   0  0  0  1  0  3  0  0  0  0  0  0
    3.4477  -17.2192   11.4698 N   0  0  0  1  0  3  0  0  0  0  0  0
    1.5050  -14.6500    8.8870 O   0  0  0  1  0  2  0  0  0  0  0  0
   -0.1100  -11.4090    8.4450 C   0  0  0  1  0  3  0  0  0  0  0  0
   -0.6265  -14.4643   12.4478 O   0  0  0  1  0  1  0  0  0  0  0  0
    0.6880  -12.5280    8.2200 C   0  0  0  1  0  3  0  0  0  0  0  0
    0.7350  -13.5620    9.1540 C   0  0  0  1  0  3  0  0  0  0  0  0
    2.0610  -14.5099    7.5722 C   0  0  0  1  0  4  0  0  0  0  0  0
   -0.0250  -13.4780   10.3280 C   0  0  0  1  0  3  0  0  0  0  0  0
    0.0360  -14.5730   11.4180 C   0  0  0  1  0  3  0  0  0  0  0  0
    1.1485  -16.6553   12.1686 C   0  0  0  1  0  4  0  0  0  0  0  0
    2.0660  -17.7309   11.5761 C   0  0  0  1  0  4  0  0  0  0  0  0
    2.1211  -18.9296   12.5204 C   0  0  0  1  0  4  0  0  0  0  0  0
    3.3025  -18.5943   13.4156 C   0  0  0  1  0  4  0  0  0  0  0  0
    4.2793  -17.9756   12.4272 C   0  0  0  1  0  4  0  0  0  0  0  0
    3.9316  -17.4449   10.1011 C   0  0  0  1  0  4  0  0  0  0  0  0
    3.0619  -16.6941    9.1035 C   0  0  0  1  0  4  0  0  0  0  0  0
   -1.6890  -10.0110    9.7860 C   0  0  0  1  0  4  0  0  0  0  0  0
   -1.2246   -9.1814   10.9852 C   0  0  0  1  0  4  0  0  0  0  0  0
    1.4086  -15.6004   10.2606 H   0  0  0  1  0  1  0  0  0  0  0  0
   -0.8760  -12.1546   12.5178 H   0  0  0  1  0  1  0  0  0  0  0  0
   -0.1360  -10.6071    7.7072 H   0  0  0  1  0  1  0  0  0  0  0  0
    3.1009  -14.8365    7.5802 H   0  0  0  1  0  1  0  0  0  0  0  0
    2.0110  -13.4649    7.2663 H   0  0  0  1  0  1  0  0  0  0  0  0
    1.4936  -15.1219    6.8710 H   0  0  0  1  0  1  0  0  0  0  0  0
    0.2013  -17.1139   12.4525 H   0  0  0  1  0  1  0  0  0  0  0  0
    1.6254  -16.2290   13.0511 H   0  0  0  1  0  1  0  0  0  0  0  0
    1.6746  -18.0071   10.5970 H   0  0  0  1  0  1  0  0  0  0  0  0
    2.2943  -19.8550   11.9711 H   0  0  0  1  0  1  0  0  0  0  0  0
    1.2016  -19.0166   13.0992 H   0  0  0  1  0  1  0  0  0  0  0  0
    3.7184  -19.4908   13.8754 H   0  0  0  1  0  1  0  0  0  0  0  0
    3.0217  -17.8835   14.1928 H   0  0  0  1  0  1  0  0  0  0  0  0
    4.9699  -17.3077   12.9420 H   0  0  0  1  0  1  0  0  0  0  0  0
    4.8422  -18.7533   11.9109 H   0  0  0  1  0  1  0  0  0  0  0  0
    3.8956  -18.5113    9.8783 H   0  0  0  1  0  1  0  0  0  0  0  0
    4.9593  -17.0908   10.0201 H   0  0  0  1  0  1  0  0  0  0  0  0
    2.2161  -17.3186    8.8159 H   0  0  0  1  0  1  0  0  0  0  0  0
    3.6509  -16.4509    8.2192 H   0  0  0  1  0  1  0  0  0  0  0  0
    2.6956  -15.7750    9.5608 H   0  0  0  1  0  1  0  0  0  0  0  0
   -2.7369  -10.2745    9.9296 H   0  0  0  1  0  1  0  0  0  0  0  0
   -1.5859   -9.4076    8.8842 H   0  0  0  1  0  1  0  0  0  0  0  0
   -0.2687   -9.5634   11.3436 H   0  0  0  1  0  1  0  0  0  0  0  0
   -1.9648   -9.2497   11.7824 H   0  0  0  1  0  1  0  0  0  0  0  0
   -1.1096   -8.1403   10.6837 H   0  0  0  1  0  1  0  0  0  0  0  0
  1  3  1  0  0  0  0
  1  5  2  0  0  0  0
  1 13  1  0  0  0  0
  2 14  1  0  0  0  0
  2 15  1  0  0  0  0
  2 24  1  0  0  0  0
  3 25  1  0  0  0  0
  4 10  1  0  0  0  0
  5  8  1  0  0  0  0
  5 22  1  0  0  0  0
  6 16  1  0  0  0  0
  6 19  1  0  0  0  0
  6 20  1  0  0  0  0
  7 11  1  0  0  0  0
  7 12  1  0  0  0  0
  8 10  2  0  0  0  0
  8 26  1  0  0  0  0
  9 14  2  0  0  0  0
 10 11  1  0  0  0  0
 11 13  2  0  0  0  0
 12 27  1  0  0  0  0
 12 28  1  0  0  0  0
 12 29  1  0  0  0  0
 13 14  1  0  0  0  0
 15 16  1  0  0  0  0
 15 30  1  0  0  0  0
 15 31  1  0  0  0  0
 16 17  1  0  0  0  0
 16 32  1  0  0  0  0
 17 18  1  0  0  0  0
 17 33  1  0  0  0  0
 17 34  1  0  0  0  0
 18 19  1  0  0  0  0
 18 35  1  0  0  0  0
 18 36  1  0  0  0  0
 19 37  1  0  0  0  0
 19 38  1  0  0  0  0
 20 21  1  0  0  0  0
 20 39  1  0  0  0  0
 20 40  1  0  0  0  0
 21 41  1  0  0  0  0
 21 42  1  0  0  0  0
 21 43  1  0  0  0  0
 22 23  1  0  0  0  0
 22 44  1  0  0  0  0
 22 45  1  0  0  0  0
 23 46  1  0  0  0  0
 23 47  1  0  0  0  0
 23 48  1  0  0  0  0
M  END
> <ConfScore>
-0.755496 

$$$$
3PBL_ETQ_A_1200
  RCSB PDB10041311333D
Coordinates from PDB:3PBL:A:1200 Model:1 without hydrogens
 48 49  0  0  0  0  0  0  0  0999 V2000
    4.7856    7.4727    4.4015 C   0  0  0  1  0  3  0  0  0  0  0  0
    6.1020    6.1606    1.1855 N   0  0  0  1  0  3  0  0  0  0  0  0
    4.2285    6.3359    4.8955 O   0  0  0  1  0  2  0  0  0  0  0  0
    6.6644   11.2398    2.7928 Cl  0  0  0  1  0  1  0  0  0  0  0  0
    4.7283    8.6458    5.1640 C   0  0  0  1  0  3  0  0  0  0  0  0
    8.6241    4.7924    1.1185 N   0  0  0  1  0  3  0  0  0  0  0  0
    6.5776    8.6647    1.4275 O   0  0  0  1  0  2  0  0  0  0  0  0
    5.3292    9.8014    4.6612 C   0  0  0  1  0  3  0  0  0  0  0  0
    4.9686    5.0989    2.8247 O   0  0  0  1  0  1  0  0  0  0  0  0
    5.9509    9.7926    3.4150 C   0  0  0  1  0  3  0  0  0  0  0  0
    5.9848    8.6274    2.6503 C   0  0  0  1  0  3  0  0  0  0  0  0
    6.9818   10.0131    1.1520 C   0  0  0  1  0  4  0  0  0  0  0  0
    5.3899    7.4556    3.1358 C   0  0  0  1  0  3  0  0  0  0  0  0
    5.4492    6.1256    2.3493 C   0  0  0  1  0  3  0  0  0  0  0  0
    6.2515    4.9889    0.2996 C   0  0  0  1  0  4  0  0  0  0  0  0
    7.4440    4.2536    0.6675 C   0  0  0  1  0  4  0  0  0  0  0  0
    7.6278    2.8688    0.6160 C   0  0  0  1  0  4  0  0  0  0  0  0
    8.9097    2.5794    1.0312 C   0  0  0  1  0  4  0  0  0  0  0  0
    9.5513    3.7741    1.3477 C   0  0  0  1  0  4  0  0  0  0  0  0
    8.8276    6.1718    1.4854 C   0  0  0  1  0  4  0  0  0  0  0  0
    9.2965    6.2490    2.9309 C   0  0  0  1  0  4  0  0  0  0  0  0
    4.1086    8.7435    6.5683 C   0  0  0  1  0  4  0  0  0  0  0  0
    4.8139    7.8494    7.5905 C   0  0  0  1  0  4  0  0  0  0  0  0
    6.5403    7.0871    0.8782 H   0  0  0  1  0  1  0  0  0  0  0  0
    4.8714    5.9120    5.6093 H   0  0  0  1  0  1  0  0  0  0  0  0
    5.3115   10.7189    5.2495 H   0  0  0  1  0  1  0  0  0  0  0  0
    6.6455   10.6656    1.9577 H   0  0  0  1  0  1  0  0  0  0  0  0
    6.5388   10.3399    0.2112 H   0  0  0  1  0  1  0  0  0  0  0  0
    8.0684   10.0585    1.0777 H   0  0  0  1  0  1  0  0  0  0  0  0
    6.3359    5.3238   -0.7342 H   0  0  0  1  0  1  0  0  0  0  0  0
    5.3800    4.3423    0.4026 H   0  0  0  1  0  1  0  0  0  0  0  0
    6.5037    4.7630    0.4567 H   0  0  0  1  0  1  0  0  0  0  0  0
    7.4848    2.5173   -0.4058 H   0  0  0  1  0  1  0  0  0  0  0  0
    6.9096    2.3785    1.2733 H   0  0  0  1  0  1  0  0  0  0  0  0
    9.4497    2.0728    0.2313 H   0  0  0  1  0  1  0  0  0  0  0  0
    8.8750    1.9365    1.9107 H   0  0  0  1  0  1  0  0  0  0  0  0
    9.8575    3.7717    2.3938 H   0  0  0  1  0  1  0  0  0  0  0  0
   10.4265    3.9115    0.7127 H   0  0  0  1  0  1  0  0  0  0  0  0
    7.8905    6.7181    1.3780 H   0  0  0  1  0  1  0  0  0  0  0  0
    9.5826    6.6130    0.8347 H   0  0  0  1  0  1  0  0  0  0  0  0
    9.0300    7.2199    3.3485 H   0  0  0  1  0  1  0  0  0  0  0  0
   10.3785    6.1221    2.9689 H   0  0  0  1  0  1  0  0  0  0  0  0
    8.8171    5.4604    3.5108 H   0  0  0  1  0  1  0  0  0  0  0  0
    3.0618    8.4456    6.5085 H   0  0  0  1  0  1  0  0  0  0  0  0
    4.1739    9.7777    6.9065 H   0  0  0  1  0  1  0  0  0  0  0  0
    5.8930    7.9258    7.4576 H   0  0  0  1  0  1  0  0  0  0  0  0
    4.5024    6.8151    7.4443 H   0  0  0  1  0  1  0  0  0  0  0  0
    4.5485    8.1703    8.5979 H   0  0  0  1  0  1  0  0  0  0  0  0
  1  3  1  0  0  0  0
  1  5  2  0  0  0  0
  1 13  1  0  0  0  0
  2 14  1  0  0  0  0
  2 15  1  0  0  0  0
  2 24  1  0  0  0  0
  3 25  1  0  0  0  0
  4 10  1  0  0  0  0
  5  8  1  0  0  0  0
  5 22  1  0  0  0  0
  6 16  1  0  0  0  0
  6 19  1  0  0  0  0
  6 20  1  0  0  0  0
  7 11  1  0  0  0  0
  7 12  1  0  0  0  0
  8 10  2  0  0  0  0
  8 26  1  0  0  0  0
  9 14  2  0  0  0  0
 10 11  1  0  0  0  0
 11 13  2  0  0  0  0
 12 27  1  0  0  0  0
 12 28  1  0  0  0  0
 12 29  1  0  0  0  0
 13 14  1  0  0  0  0
 15 16  1  0  0  0  0
 15 30  1  0  0  0  0
 15 31  1  0  0  0  0
 16 17  1  0  0  0  0
 16 32  1  0  0  0  0
 17 18  1  0  0  0  0
 17 33  1  0  0  0  0
 17 34  1  0  0  0  0
 18 19  1  0  0  0  0
 18 35  1  0  0  0  0
 18 36  1  0  0  0  0
 19 37  1  0  0  0  0
 19 38  1  0  0  0  0
 20 21  1  0  0  0  0
 20 39  1  0  0  0  0
 20 40  1  0  0  0  0
 21 41  1  0  0  0  0
 21 42  1  0  0  0  0
 21 43  1  0  0  0  0
 22 23  1  0  0  0  0
 22 44  1  0  0  0  0
 22 45  1  0  0  0  0
 23 46  1  0  0  0  0
 23 47  1  0  0  0  0
 23 48  1  0  0  0  0
M  END
> <ConfScore>
-0.710471 

$$$$
3PBL_ETQ_A_1200
  RCSB PDB10041311333D
Coordinates from PDB:3PBL:A:1200 Model:1 without hydrogens
 48 49  0  0  0  0  0  0  0  0999 V2000
    5.6824    3.6857    8.2381 C   0  0  0  1  0  3  0  0  0  0  0  0
    5.9570    4.5808    4.6448 N   0  0  0  1  0  3  0  0  0  0  0  0
    4.4971    4.2841    8.5272 O   0  0  0  1  0  2  0  0  0  0  0  0
    9.5941    1.6626    7.2821 Cl  0  0  0  1  0  1  0  0  0  0  0  0
    6.3441    2.9664    9.2409 C   0  0  0  1  0  3  0  0  0  0  0  0
    6.4785    7.1044    2.4827 N   0  0  0  1  0  3  0  0  0  0  0  0
    8.0102    3.2647    5.4309 O   0  0  0  1  0  2  0  0  0  0  0  0
    7.5467    2.3304    8.9265 C   0  0  0  1  0  3  0  0  0  0  0  0
    4.3723    5.1350    6.1550 O   0  0  0  1  0  1  0  0  0  0  0  0
    8.0887    2.4310    7.6476 C   0  0  0  1  0  3  0  0  0  0  0  0
    7.4369    3.1676    6.6596 C   0  0  0  1  0  3  0  0  0  0  0  0
    9.2874    2.6127    5.4652 C   0  0  0  1  0  4  0  0  0  0  0  0
    6.2281    3.8126    6.9522 C   0  0  0  1  0  3  0  0  0  0  0  0
    5.4408    4.5951    5.8757 C   0  0  0  1  0  3  0  0  0  0  0  0
    5.2921    5.1895    3.4754 C   0  0  0  1  0  4  0  0  0  0  0  0
    6.3456    5.6254    2.4598 C   0  0  0  1  0  4  0  0  0  0  0  0
    5.9301    5.4187    1.0019 C   0  0  0  1  0  4  0  0  0  0  0  0
    6.6883    6.4913    0.2486 C   0  0  0  1  0  4  0  0  0  0  0  0
    6.5810    7.7364    1.1392 C   0  0  0  1  0  4  0  0  0  0  0  0
    7.6889    7.4443    3.2428 C   0  0  0  1  0  4  0  0  0  0  0  0
    7.3807    8.5231    4.2707 C   0  0  0  1  0  4  0  0  0  0  0  0
    5.8035    2.7578   10.6657 C   0  0  0  1  0  4  0  0  0  0  0  0
    4.4744    1.9995   10.6898 C   0  0  0  1  0  4  0  0  0  0  0  0
    6.9028    4.1026    4.4977 H   0  0  0  1  0  1  0  0  0  0  0  0
    4.6007    5.3256    8.4436 H   0  0  0  1  0  1  0  0  0  0  0  0
    8.0659    1.7498    9.6890 H   0  0  0  1  0  1  0  0  0  0  0  0
    9.9733    3.1200    4.7867 H   0  0  0  1  0  1  0  0  0  0  0  0
    9.1732    1.5737    5.1562 H   0  0  0  1  0  1  0  0  0  0  0  0
    9.6865    2.6490    6.4789 H   0  0  0  1  0  1  0  0  0  0  0  0
    4.7161    6.0575    3.7963 H   0  0  0  1  0  1  0  0  0  0  0  0
    4.6252    4.4598    3.0163 H   0  0  0  1  0  1  0  0  0  0  0  0
    7.2260    5.0446    2.7347 H   0  0  0  1  0  1  0  0  0  0  0  0
    4.8544    5.5494    0.8836 H   0  0  0  1  0  1  0  0  0  0  0  0
    6.2164    4.4259    0.6547 H   0  0  0  1  0  1  0  0  0  0  0  0
    6.2324    6.6736   -0.7245 H   0  0  0  1  0  1  0  0  0  0  0  0
    7.7308    6.2031    0.1137 H   0  0  0  1  0  1  0  0  0  0  0  0
    7.4670    8.3661    1.0579 H   0  0  0  1  0  1  0  0  0  0  0  0
    5.6940    8.3242    0.9029 H   0  0  0  1  0  1  0  0  0  0  0  0
    8.4535    7.8090    2.5570 H   0  0  0  1  0  1  0  0  0  0  0  0
    8.0539    6.5538    3.7546 H   0  0  0  1  0  1  0  0  0  0  0  0
    7.8156    8.2456    5.2309 H   0  0  0  1  0  1  0  0  0  0  0  0
    6.3007    8.6253    4.3772 H   0  0  0  1  0  1  0  0  0  0  0  0
    7.8051    9.4712    3.9404 H   0  0  0  1  0  1  0  0  0  0  0  0
    5.6562    3.7335   11.1286 H   0  0  0  1  0  1  0  0  0  0  0  0
    6.5382    2.1909   11.2375 H   0  0  0  1  0  1  0  0  0  0  0  0
    3.7478    2.5575   11.2804 H   0  0  0  1  0  1  0  0  0  0  0  0
    4.6255    1.0160   11.1347 H   0  0  0  1  0  1  0  0  0  0  0  0
    4.1032    1.8850    9.6713 H   0  0  0  1  0  1  0  0  0  0  0  0
  1  3  1  0  0  0  0
  1  5  2  0  0  0  0
  1 13  1  0  0  0  0
  2 14  1  0  0  0  0
  2 15  1  0  0  0  0
  2 24  1  0  0  0  0
  3 25  1  0  0  0  0
  4 10  1  0  0  0  0
  5  8  1  0  0  0  0
  5 22  1  0  0  0  0
  6 16  1  0  0  0  0
  6 19  1  0  0  0  0
  6 20  1  0  0  0  0
  7 11  1  0  0  0  0
  7 12  1  0  0  0  0
  8 10  2  0  0  0  0
  8 26  1  0  0  0  0
  9 14  2  0  0  0  0
 10 11  1  0  0  0  0
 11 13  2  0  0  0  0
 12 27  1  0  0  0  0
 12 28  1  0  0  0  0
 12 29  1  0  0  0  0
 13 14  1  0  0  0  0
 15 16  1  0  0  0  0
 15 30  1  0  0  0  0
 15 31  1  0  0  0  0
 16 17  1  0  0  0  0
 16 32  1  0  0  0  0
 17 18  1  0  0  0  0
 17 33  1  0  0  0  0
 17 34  1  0  0  0  0
 18 19  1  0  0  0  0
 18 35  1  0  0  0  0
 18 36  1  0  0  0  0
 19 37  1  0  0  0  0
 19 38  1  0  0  0  0
 20 21  1  0  0  0  0
 20 39  1  0  0  0  0
 20 40  1  0  0  0  0
 21 41  1  0  0  0  0
 21 42  1  0  0  0  0
 21 43  1  0  0  0  0
 22 23  1  0  0  0  0
 22 44  1  0  0  0  0
 22 45  1  0  0  0  0
 23 46  1  0  0  0  0
 23 47  1  0  0  0  0
 23 48  1  0  0  0  0
M  END
> <ConfScore>
-0.701759 

$$$$
3PBL_ETQ_A_1200
  RCSB PDB10041311333D
Coordinates from PDB:3PBL:A:1200 Model:1 without hydrogens
 48 49  0  0  0  0  0  0  0  0999 V2000
   -0.8080  -12.3360   10.5520 C   0  0  0  1  0  3  0  0  0  0  0  0
    1.2415  -14.8193   11.9358 N   0  0  0  1  0  3  0  0  0  0  0  0
   -1.5290  -12.2300   11.6990 O   0  0  0  1  0  2  0  0  0  0  0  0
    1.6090  -12.6560    6.7620 Cl  0  0  0  1  0  1  0  0  0  0  0  0
   -0.8770  -11.3050    9.6070 C   0  0  0  1  0  3  0  0  0  0  0  0
    3.5115  -14.7140   13.9766 N   0  0  0  1  0  3  0  0  0  0  0  0
    1.5050  -14.6500    8.8870 O   0  0  0  1  0  2  0  0  0  0  0  0
   -0.1100  -11.4090    8.4450 C   0  0  0  1  0  3  0  0  0  0  0  0
   -0.9927  -15.1214   11.8082 O   0  0  0  1  0  1  0  0  0  0  0  0
    0.6880  -12.5280    8.2200 C   0  0  0  1  0  3  0  0  0  0  0  0
    0.7350  -13.5620    9.1540 C   0  0  0  1  0  3  0  0  0  0  0  0
    2.0610  -14.5099    7.5722 C   0  0  0  1  0  4  0  0  0  0  0  0
   -0.0250  -13.4780   10.3280 C   0  0  0  1  0  3  0  0  0  0  0  0
    0.0360  -14.5730   11.4180 C   0  0  0  1  0  3  0  0  0  0  0  0
    1.4720  -15.7547   13.0546 C   0  0  0  1  0  4  0  0  0  0  0  0
    2.9687  -15.9294   13.3357 C   0  0  0  1  0  4  0  0  0  0  0  0
    3.1700  -17.0690   14.3318 C   0  0  0  1  0  4  0  0  0  0  0  0
    3.1310  -16.3517   15.6710 C   0  0  0  1  0  4  0  0  0  0  0  0
    3.8845  -15.0673   15.3609 C   0  0  0  1  0  4  0  0  0  0  0  0
    4.7022  -14.2794   13.2340 C   0  0  0  1  0  4  0  0  0  0  0  0
    4.9386  -12.7905   13.4407 C   0  0  0  1  0  4  0  0  0  0  0  0
   -1.6890  -10.0110    9.7860 C   0  0  0  1  0  4  0  0  0  0  0  0
   -1.3315   -9.2603   11.0707 C   0  0  0  1  0  4  0  0  0  0  0  0
    2.0856  -14.3117   11.5178 H   0  0  0  1  0  1  0  0  0  0  0  0
   -0.8760  -12.1546   12.5178 H   0  0  0  1  0  1  0  0  0  0  0  0
   -0.1360  -10.6071    7.7072 H   0  0  0  1  0  1  0  0  0  0  0  0
    3.1009  -14.8365    7.5802 H   0  0  0  1  0  1  0  0  0  0  0  0
    2.0110  -13.4649    7.2663 H   0  0  0  1  0  1  0  0  0  0  0  0
    1.4936  -15.1219    6.8710 H   0  0  0  1  0  1  0  0  0  0  0  0
    1.0431  -16.7241   12.8007 H   0  0  0  1  0  1  0  0  0  0  0  0
    0.9860  -15.3649   13.9490 H   0  0  0  1  0  1  0  0  0  0  0  0
    3.4695  -16.1290   12.3884 H   0  0  0  1  0  1  0  0  0  0  0  0
    4.1303  -17.5611   14.1772 H   0  0  0  1  0  1  0  0  0  0  0  0
    2.3684  -17.8037   14.2558 H   0  0  0  1  0  1  0  0  0  0  0  0
    3.6353  -16.9300   16.4452 H   0  0  0  1  0  1  0  0  0  0  0  0
    2.1064  -16.1453   15.9803 H   0  0  0  1  0  1  0  0  0  0  0  0
    3.5871  -14.2759   16.0490 H   0  0  0  1  0  1  0  0  0  0  0  0
    4.9598  -15.2293   15.4357 H   0  0  0  1  0  1  0  0  0  0  0  0
    4.5553  -14.4761   12.1720 H   0  0  0  1  0  1  0  0  0  0  0  0
    5.5703  -14.8341   13.5901 H   0  0  0  1  0  1  0  0  0  0  0  0
    5.9304  -12.6350   13.8653 H   0  0  0  1  0  1  0  0  0  0  0  0
    4.1857  -12.3945   14.1222 H   0  0  0  1  0  1  0  0  0  0  0  0
    4.8691  -12.2754   12.4826 H   0  0  0  1  0  1  0  0  0  0  0  0
   -2.7484  -10.2658    9.8148 H   0  0  0  1  0  1  0  0  0  0  0  0
   -1.4950   -9.3576    8.9354 H   0  0  0  1  0  1  0  0  0  0  0  0
   -0.3789   -9.6269   11.4533 H   0  0  0  1  0  1  0  0  0  0  0  0
   -2.1097   -9.4251   11.8160 H   0  0  0  1  0  1  0  0  0  0  0  0
   -1.2513   -8.1943   10.8580 H   0  0  0  1  0  1  0  0  0  0  0  0
  1  3  1  0  0  0  0
  1  5  2  0  0  0  0
  1 13  1  0  0  0  0
  2 14  1  0  0  0  0
  2 15  1  0  0  0  0
  2 24  1  0  0  0  0
  3 25  1  0  0  0  0
  4 10  1  0  0  0  0
  5  8  1  0  0  0  0
  5 22  1  0  0  0  0
  6 16  1  0  0  0  0
  6 19  1  0  0  0  0
  6 20  1  0  0  0  0
  7 11  1  0  0  0  0
  7 12  1  0  0  0  0
  8 10  2  0  0  0  0
  8 26  1  0  0  0  0
  9 14  2  0  0  0  0
 10 11  1  0  0  0  0
 11 13  2  0  0  0  0
 12 27  1  0  0  0  0
 12 28  1  0  0  0  0
 12 29  1  0  0  0  0
 13 14  1  0  0  0  0
 15 16  1  0  0  0  0
 15 30  1  0  0  0  0
 15 31  1  0  0  0  0
 16 17  1  0  0  0  0
 16 32  1  0  0  0  0
 17 18  1  0  0  0  0
 17 33  1  0  0  0  0
 17 34  1  0  0  0  0
 18 19  1  0  0  0  0
 18 35  1  0  0  0  0
 18 36  1  0  0  0  0
 19 37  1  0  0  0  0
 19 38  1  0  0  0  0
 20 21  1  0  0  0  0
 20 39  1  0  0  0  0
 20 40  1  0  0  0  0
 21 41  1  0  0  0  0
 21 42  1  0  0  0  0
 21 43  1  0  0  0  0
 22 23  1  0  0  0  0
 22 44  1  0  0  0  0
 22 45  1  0  0  0  0
 23 46  1  0  0  0  0
 23 47  1  0  0  0  0
 23 48  1  0  0  0  0
M  END
> <ConfScore>
-0.334247 

$$$$
3PBL_ETQ_A_1200
  RCSB PDB10041311333D
Coordinates from PDB:3PBL:A:1200 Model:1 without hydrogens
 48 49  0  0  0  0  0  0  0  0999 V2000
   -0.8080  -12.3360   10.5520 C   0  0  0  1  0  3  0  0  0  0  0  0
    0.8875  -15.5765   11.1949 N   0  0  0  1  0  3  0  0  0  0  0  0
   -1.5290  -12.2300   11.6990 O   0  0  0  1  0  2  0  0  0  0  0  0
    1.6090  -12.6560    6.7620 Cl  0  0  0  1  0  1  0  0  0  0  0  0
   -0.8770  -11.3050    9.6070 C   0  0  0  1  0  3  0  0  0  0  0  0
    3.4477  -17.2192   11.4698 N   0  0  0  1  0  3  0  0  0  0  0  0
    1.5050  -14.6500    8.8870 O   0  0  0  1  0  2  0  0  0  0  0  0
   -0.1100  -11.4090    8.4450 C   0  0  0  1  0  3  0  0  0  0  0  0
   -0.6265  -14.4643   12.4478 O   0  0  0  1  0  1  0  0  0  0  0  0
    0.6880  -12.5280    8.2200 C   0  0  0  1  0  3  0  0  0  0  0  0
    0.7350  -13.5620    9.1540 C   0  0  0  1  0  3  0  0  0  0  0  0
    0.7284  -15.5905    8.1321 C   0  0  0  1  0  4  0  0  0  0  0  0
   -0.0250  -13.4780   10.3280 C   0  0  0  1  0  3  0  0  0  0  0  0
    0.0360  -14.5730   11.4180 C   0  0  0  1  0  3  0  0  0  0  0  0
    1.1485  -16.6553   12.1686 C   0  0  0  1  0  4  0  0  0  0  0  0
    2.0660  -17.7309   11.5761 C   0  0  0  1  0  4  0  0  0  0  0  0
    2.1211  -18.9296   12.5204 C   0  0  0  1  0  4  0  0  0  0  0  0
    3.3025  -18.5943   13.4156 C   0  0  0  1  0  4  0  0  0  0  0  0
    4.2793  -17.9756   12.4272 C   0  0  0  1  0  4  0  0  0  0  0  0
    3.9316  -17.4449   10.1011 C   0  0  0  1  0  4  0  0  0  0  0  0
    5.0378  -16.4563    9.7629 C   0  0  0  1  0  4  0  0  0  0  0  0
   -1.6890  -10.0110    9.7860 C   0  0  0  1  0  4  0  0  0  0  0  0
   -3.1994  -10.2436    9.7054 C   0  0  0  1  0  4  0  0  0  0  0  0
    1.4086  -15.6004   10.2606 H   0  0  0  1  0  1  0  0  0  0  0  0
   -0.8760  -12.1546   12.5178 H   0  0  0  1  0  1  0  0  0  0  0  0
   -0.1360  -10.6071    7.7072 H   0  0  0  1  0  1  0  0  0  0  0  0
    1.3946  -16.2397    7.5641 H   0  0  0  1  0  1  0  0  0  0  0  0
    0.0735  -15.0530    7.4463 H   0  0  0  1  0  1  0  0  0  0  0  0
    0.1267  -16.1934    8.8123 H   0  0  0  1  0  1  0  0  0  0  0  0
    0.2013  -17.1139   12.4525 H   0  0  0  1  0  1  0  0  0  0  0  0
    1.6254  -16.2290   13.0511 H   0  0  0  1  0  1  0  0  0  0  0  0
    1.6746  -18.0071   10.5970 H   0  0  0  1  0  1  0  0  0  0  0  0
    2.2943  -19.8550   11.9711 H   0  0  0  1  0  1  0  0  0  0  0  0
    1.2016  -19.0166   13.0992 H   0  0  0  1  0  1  0  0  0  0  0  0
    3.7184  -19.4908   13.8754 H   0  0  0  1  0  1  0  0  0  0  0  0
    3.0217  -17.8835   14.1928 H   0  0  0  1  0  1  0  0  0  0  0  0
    4.9699  -17.3077   12.9420 H   0  0  0  1  0  1  0  0  0  0  0  0
    4.8422  -18.7533   11.9109 H   0  0  0  1  0  1  0  0  0  0  0  0
    3.1060  -17.3138    9.4017 H   0  0  0  1  0  1  0  0  0  0  0  0
    4.3196  -18.4603   10.0198 H   0  0  0  1  0  1  0  0  0  0  0  0
    5.6632  -16.2956   10.6410 H   0  0  0  1  0  1  0  0  0  0  0  0
    4.5961  -15.5091    9.4534 H   0  0  0  1  0  1  0  0  0  0  0  0
    5.6465  -16.8561    8.9518 H   0  0  0  1  0  1  0  0  0  0  0  0
   -1.4025   -9.3089    9.0030 H   0  0  0  1  0  1  0  0  0  0  0  0
   -1.4539   -9.5844   10.7611 H   0  0  0  1  0  1  0  0  0  0  0  0
   -3.6758   -9.8560   10.6060 H   0  0  0  1  0  1  0  0  0  0  0  0
   -3.3982  -11.3119    9.6205 H   0  0  0  1  0  1  0  0  0  0  0  0
   -3.6000   -9.7284    8.8324 H   0  0  0  1  0  1  0  0  0  0  0  0
  1  3  1  0  0  0  0
  1  5  2  0  0  0  0
  1 13  1  0  0  0  0
  2 14  1  0  0  0  0
  2 15  1  0  0  0  0
  2 24  1  0  0  0  0
  3 25  1  0  0  0  0
  4 10  1  0  0  0  0
  5  8  1  0  0  0  0
  5 22  1  0  0  0  0
  6 16  1  0  0  0  0
  6 19  1  0  0  0  0
  6 20  1  0  0  0  0
  7 11  1  0  0  0  0
  7 12  1  0  0  0  0
  8 10  2  0  0  0  0
  8 26  1  0  0  0  0
  9 14  2  0  0  0  0
 10 11  1  0  0  0  0
 11 13  2  0  0  0  0
 12 27  1  0  0  0  0
 12 28  1  0  0  0  0
 12 29  1  0  0  0  0
 13 14  1  0  0  0  0
 15 16  1  0  0  0  0
 15 30  1  0  0  0  0
 15 31  1  0  0  0  0
 16 17  1  0  0  0  0
 16 32  1  0  0  0  0
 17 18  1  0  0  0  0
 17 33  1  0  0  0  0
 17 34  1  0  0  0  0
 18 19  1  0  0  0  0
 18 35  1  0  0  0  0
 18 36  1  0  0  0  0
 19 37  1  0  0  0  0
 19 38  1  0  0  0  0
 20 21  1  0  0  0  0
 20 39  1  0  0  0  0
 20 40  1  0  0  0  0
 21 41  1  0  0  0  0
 21 42  1  0  0  0  0
 21 43  1  0  0  0  0
 22 23  1  0  0  0  0
 22 44  1  0  0  0  0
 22 45  1  0  0  0  0
 23 46  1  0  0  0  0
 23 47  1  0  0  0  0
 23 48  1  0  0  0  0
M  END
> <ConfScore>
-0.502996 

$$$$
3PBL_ETQ_A_1200
  RCSB PDB10041311333D
Coordinates from PDB:3PBL:A:1200 Model:1 without hydrogens
 48 49  0  0  0  0  0  0  0  0999 V2000
   14.5627    9.0221    8.0290 C   0  0  0  1  0  3  0  0  0  0  0  0
   15.8040    7.1328    5.0842 N   0  0  0  1  0  3  0  0  0  0  0  0
   13.8940    8.0258    8.6670 O   0  0  0  1  0  2  0  0  0  0  0  0
   16.8110   12.3244    5.9438 Cl  0  0  0  1  0  1  0  0  0  0  0  0
   14.6208   10.2901    8.6203 C   0  0  0  1  0  3  0  0  0  0  0  0
   16.2554    4.9752    2.0995 N   0  0  0  1  0  3  0  0  0  0  0  0
   16.4713    9.6050    4.9477 O   0  0  0  1  0  2  0  0  0  0  0  0
   15.3350   11.2994    7.9719 C   0  0  0  1  0  3  0  0  0  0  0  0
   14.4615    6.4598    6.7705 O   0  0  0  1  0  1  0  0  0  0  0  0
   15.9555   11.0556    6.7492 C   0  0  0  1  0  3  0  0  0  0  0  0
   15.8750    9.7974    6.1541 C   0  0  0  1  0  3  0  0  0  0  0  0
   17.0607   10.8416    4.5224 C   0  0  0  1  0  4  0  0  0  0  0  0
   15.1651    8.7690    6.7879 C   0  0  0  1  0  3  0  0  0  0  0  0
   15.0935    7.3430    6.1946 C   0  0  0  1  0  3  0  0  0  0  0  0
   15.9402    5.8102    4.4422 C   0  0  0  1  0  4  0  0  0  0  0  0
   16.1432    5.9802    3.0376 C   0  0  0  1  0  4  0  0  0  0  0  0
   16.1704    7.1939    2.3408 C   0  0  0  1  0  4  0  0  0  0  0  0
   16.2940    6.9062    0.9901 C   0  0  0  1  0  4  0  0  0  0  0  0
   16.3453    5.5117    0.8399 C   0  0  0  1  0  4  0  0  0  0  0  0
   15.0723    4.1075    2.1741 C   0  0  0  1  0  4  0  0  0  0  0  0
   14.0401    4.7029    3.1203 C   0  0  0  1  0  4  0  0  0  0  0  0
   14.0107   10.6435    9.9873 C   0  0  0  1  0  4  0  0  0  0  0  0
   14.6211    9.8359   11.1350 C   0  0  0  1  0  4  0  0  0  0  0  0
   16.3012    7.9673    4.6355 H   0  0  0  1  0  1  0  0  0  0  0  0
   13.6000    8.3551    9.6196 H   0  0  0  1  0  1  0  0  0  0  0  0
   15.4074   12.2873    8.4267 H   0  0  0  1  0  1  0  0  0  0  0  0
   16.8629   11.6137    5.2659 H   0  0  0  1  0  1  0  0  0  0  0  0
   16.6299   11.1393    3.5664 H   0  0  0  1  0  1  0  0  0  0  0  0
   18.1373   10.7115    4.4116 H   0  0  0  1  0  1  0  0  0  0  0  0
   15.0330    5.2298    4.6104 H   0  0  0  1  0  1  0  0  0  0  0  0
   16.7932    5.2845    4.8714 H   0  0  0  1  0  1  0  0  0  0  0  0
   16.3679    5.8739    4.0989 H   0  0  0  1  0  1  0  0  0  0  0  0
   17.0196    7.7919    2.6714 H   0  0  0  1  0  1  0  0  0  0  0  0
   15.2465    7.7442    2.5193 H   0  0  0  1  0  1  0  0  0  0  0  0
   17.2087    7.3527    0.6004 H   0  0  0  1  0  1  0  0  0  0  0  0
   15.4356    7.3038    0.4485 H   0  0  0  1  0  1  0  0  0  0  0  0
   15.5124    5.1693    0.2257 H   0  0  0  1  0  1  0  0  0  0  0  0
   17.2859    5.2187    0.3734 H   0  0  0  1  0  1  0  0  0  0  0  0
   15.3698    3.1244    2.5391 H   0  0  0  1  0  1  0  0  0  0  0  0
   14.6350    4.0096    1.1805 H   0  0  0  1  0  1  0  0  0  0  0  0
   14.1206    5.7899    3.1092 H   0  0  0  1  0  1  0  0  0  0  0  0
   14.2195    4.3359    4.1309 H   0  0  0  1  0  1  0  0  0  0  0  0
   13.0408    4.4096    2.7987 H   0  0  0  1  0  1  0  0  0  0  0  0
   12.9396   10.4445    9.9526 H   0  0  0  1  0  1  0  0  0  0  0  0
   14.1779   11.7033   10.1798 H   0  0  0  1  0  1  0  0  0  0  0  0
   14.2061   10.1794   12.0826 H   0  0  0  1  0  1  0  0  0  0  0  0
   15.7023    9.9735   11.1410 H   0  0  0  1  0  1  0  0  0  0  0  0
   14.3895    8.7795   10.9989 H   0  0  0  1  0  1  0  0  0  0  0  0
  1  3  1  0  0  0  0
  1  5  2  0  0  0  0
  1 13  1  0  0  0  0
  2 14  1  0  0  0  0
  2 15  1  0  0  0  0
  2 24  1  0  0  0  0
  3 25  1  0  0  0  0
  4 10  1  0  0  0  0
  5  8  1  0  0  0  0
  5 22  1  0  0  0  0
  6 16  1  0  0  0  0
  6 19  1  0  0  0  0
  6 20  1  0  0  0  0
  7 11  1  0  0  0  0
  7 12  1  0  0  0  0
  8 10  2  0  0  0  0
  8 26  1  0  0  0  0
  9 14  2  0  0  0  0
 10 11  1  0  0  0  0
 11 13  2  0  0  0  0
 12 27  1  0  0  0  0
 12 28  1  0  0  0  0
 12 29  1  0  0  0  0
 13 14  1  0  0  0  0
 15 16  1  0  0  0  0
 15 30  1  0  0  0  0
 15 31  1  0  0  0  0
 16 17  1  0  0  0  0
 16 32  1  0  0  0  0
 17 18  1  0  0  0  0
 17 33  1  0  0  0  0
 17 34  1  0  0  0  0
 18 19  1  0  0  0  0
 18 35  1  0  0  0  0
 18 36  1  0  0  0  0
 19 37  1  0  0  0  0
 19 38  1  0  0  0  0
 20 21  1  0  0  0  0
 20 39  1  0  0  0  0
 20 40  1  0  0  0  0
 21 41  1  0  0  0  0
 21 42  1  0  0  0  0
 21 43  1  0  0  0  0
 22 23  1  0  0  0  0
 22 44  1  0  0  0  0
 22 45  1  0  0  0  0
 23 46  1  0  0  0  0
 23 47  1  0  0  0  0
 23 48  1  0  0  0  0
M  END
> <ConfScore>
-0.703713 

$$$$
3PBL_ETQ_A_1200
  RCSB PDB10041311333D
Coordinates from PDB:3PBL:A:1200 Model:1 without hydrogens
 48 49  0  0  0  0  0  0  0  0999 V2000
   14.5627    9.0221    8.0290 C   0  0  0  1  0  3  0  0  0  0  0  0
   15.8040    7.1328    5.0842 N   0  0  0  1  0  3  0  0  0  0  0  0
   13.8940    8.0258    8.6670 O   0  0  0  1  0  2  0  0  0  0  0  0
   16.8110   12.3244    5.9438 Cl  0  0  0  1  0  1  0  0  0  0  0  0
   14.6208   10.2901    8.6203 C   0  0  0  1  0  3  0  0  0  0  0  0
   16.2554    4.9752    2.0995 N   0  0  0  1  0  3  0  0  0  0  0  0
   16.4713    9.6050    4.9477 O   0  0  0  1  0  2  0  0  0  0  0  0
   15.3350   11.2994    7.9719 C   0  0  0  1  0  3  0  0  0  0  0  0
   14.4615    6.4598    6.7705 O   0  0  0  1  0  1  0  0  0  0  0  0
   15.9555   11.0556    6.7492 C   0  0  0  1  0  3  0  0  0  0  0  0
   15.8750    9.7974    6.1541 C   0  0  0  1  0  3  0  0  0  0  0  0
   17.0607   10.8416    4.5224 C   0  0  0  1  0  4  0  0  0  0  0  0
   15.1651    8.7690    6.7879 C   0  0  0  1  0  3  0  0  0  0  0  0
   15.0935    7.3430    6.1946 C   0  0  0  1  0  3  0  0  0  0  0  0
   15.9402    5.8102    4.4422 C   0  0  0  1  0  4  0  0  0  0  0  0
   16.1432    5.9802    3.0376 C   0  0  0  1  0  4  0  0  0  0  0  0
   16.1704    7.1939    2.3408 C   0  0  0  1  0  4  0  0  0  0  0  0
   16.2940    6.9062    0.9901 C   0  0  0  1  0  4  0  0  0  0  0  0
   16.3453    5.5117    0.8399 C   0  0  0  1  0  4  0  0  0  0  0  0
   15.0723    4.1075    2.1741 C   0  0  0  1  0  4  0  0  0  0  0  0
   14.0401    4.7029    3.1203 C   0  0  0  1  0  4  0  0  0  0  0  0
   14.0107   10.6435    9.9873 C   0  0  0  1  0  4  0  0  0  0  0  0
   12.4851   10.5255   10.0034 C   0  0  0  1  0  4  0  0  0  0  0  0
   16.3012    7.9673    4.6355 H   0  0  0  1  0  1  0  0  0  0  0  0
   13.6000    8.3551    9.6196 H   0  0  0  1  0  1  0  0  0  0  0  0
   15.4074   12.2873    8.4267 H   0  0  0  1  0  1  0  0  0  0  0  0
   16.8629   11.6137    5.2659 H   0  0  0  1  0  1  0  0  0  0  0  0
   16.6299   11.1393    3.5664 H   0  0  0  1  0  1  0  0  0  0  0  0
   18.1373   10.7115    4.4116 H   0  0  0  1  0  1  0  0  0  0  0  0
   15.0330    5.2298    4.6104 H   0  0  0  1  0  1  0  0  0  0  0  0
   16.7932    5.2845    4.8714 H   0  0  0  1  0  1  0  0  0  0  0  0
   16.3679    5.8739    4.0989 H   0  0  0  1  0  1  0  0  0  0  0  0
   17.0196    7.7919    2.6714 H   0  0  0  1  0  1  0  0  0  0  0  0
   15.2465    7.7442    2.5193 H   0  0  0  1  0  1  0  0  0  0  0  0
   17.2087    7.3527    0.6004 H   0  0  0  1  0  1  0  0  0  0  0  0
   15.4356    7.3038    0.4485 H   0  0  0  1  0  1  0  0  0  0  0  0
   15.5124    5.1693    0.2257 H   0  0  0  1  0  1  0  0  0  0  0  0
   17.2859    5.2187    0.3734 H   0  0  0  1  0  1  0  0  0  0  0  0
   15.3698    3.1244    2.5391 H   0  0  0  1  0  1  0  0  0  0  0  0
   14.6350    4.0096    1.1805 H   0  0  0  1  0  1  0  0  0  0  0  0
   14.1206    5.7899    3.1092 H   0  0  0  1  0  1  0  0  0  0  0  0
   14.2195    4.3359    4.1309 H   0  0  0  1  0  1  0  0  0  0  0  0
   13.0408    4.4096    2.7987 H   0  0  0  1  0  1  0  0  0  0  0  0
   14.2834   11.6692   10.2357 H   0  0  0  1  0  1  0  0  0  0  0  0
   14.4203    9.9665   10.7370 H   0  0  0  1  0  1  0  0  0  0  0  0
   12.1194   10.6733   11.0195 H   0  0  0  1  0  1  0  0  0  0  0  0
   12.1937    9.5353    9.6531 H   0  0  0  1  0  1  0  0  0  0  0  0
   12.0553   11.2840    9.3490 H   0  0  0  1  0  1  0  0  0  0  0  0
  1  3  1  0  0  0  0
  1  5  2  0  0  0  0
  1 13  1  0  0  0  0
  2 14  1  0  0  0  0
  2 15  1  0  0  0  0
  2 24  1  0  0  0  0
  3 25  1  0  0  0  0
  4 10  1  0  0  0  0
  5  8  1  0  0  0  0
  5 22  1  0  0  0  0
  6 16  1  0  0  0  0
  6 19  1  0  0  0  0
  6 20  1  0  0  0  0
  7 11  1  0  0  0  0
  7 12  1  0  0  0  0
  8 10  2  0  0  0  0
  8 26  1  0  0  0  0
  9 14  2  0  0  0  0
 10 11  1  0  0  0  0
 11 13  2  0  0  0  0
 12 27  1  0  0  0  0
 12 28  1  0  0  0  0
 12 29  1  0  0  0  0
 13 14  1  0  0  0  0
 15 16  1  0  0  0  0
 15 30  1  0  0  0  0
 15 31  1  0  0  0  0
 16 17  1  0  0  0  0
 16 32  1  0  0  0  0
 17 18  1  0  0  0  0
 17 33  1  0  0  0  0
 17 34  1  0  0  0  0
 18 19  1  0  0  0  0
 18 35  1  0  0  0  0
 18 36  1  0  0  0  0
 19 37  1  0  0  0  0
 19 38  1  0  0  0  0
 20 21  1  0  0  0  0
 20 39  1  0  0  0  0
 20 40  1  0  0  0  0
 21 41  1  0  0  0  0
 21 42  1  0  0  0  0
 21 43  1  0  0  0  0
 22 23  1  0  0  0  0
 22 44  1  0  0  0  0
 22 45  1  0  0  0  0
 23 46  1  0  0  0  0
 23 47  1  0  0  0  0
 23 48  1  0  0  0  0
M  END
> <ConfScore>
-0.687959 

$$$$
3PBL_ETQ_A_1200
  RCSB PDB10041311333D
Coordinates from PDB:3PBL:A:1200 Model:1 without hydrogens
 48 49  0  0  0  0  0  0  0  0999 V2000
   -1.0044    0.8487   -2.6563 C   0  0  0  1  0  3  0  0  0  0  0  0
    0.8253    2.2712    0.2472 N   0  0  0  1  0  3  0  0  0  0  0  0
   -1.0067   -0.4621   -2.2979 O   0  0  0  1  0  2  0  0  0  0  0  0
   -1.0391    5.1974   -3.8380 Cl  0  0  0  1  0  1  0  0  0  0  0  0
   -1.6014    1.2246   -3.8658 C   0  0  0  1  0  3  0  0  0  0  0  0
    1.1946    4.3858    2.3310 N   0  0  0  1  0  3  0  0  0  0  0  0
    0.1632    4.1015   -1.4181 O   0  0  0  1  0  2  0  0  0  0  0  0
   -1.6201    2.5772   -4.2116 C   0  0  0  1  0  3  0  0  0  0  0  0
    0.1044    0.1620   -0.1140 O   0  0  0  1  0  1  0  0  0  0  0  0
   -1.0342    3.5295   -3.3813 C   0  0  0  1  0  3  0  0  0  0  0  0
   -0.4210    3.1465   -2.1892 C   0  0  0  1  0  3  0  0  0  0  0  0
    0.0835    5.3594   -2.1027 C   0  0  0  1  0  4  0  0  0  0  0  0
   -0.3920    1.7949   -1.8214 C   0  0  0  1  0  3  0  0  0  0  0  0
    0.2276    1.3278   -0.4839 C   0  0  0  1  0  3  0  0  0  0  0  0
    1.3839    2.0278    1.5921 C   0  0  0  1  0  4  0  0  0  0  0  0
    2.1233    3.2623    2.1204 C   0  0  0  1  0  4  0  0  0  0  0  0
    3.0924    3.8107    1.0754 C   0  0  0  1  0  4  0  0  0  0  0  0
    3.0645    5.2998    1.2313 C   0  0  0  1  0  4  0  0  0  0  0  0
    2.0621    5.5707    2.3412 C   0  0  0  1  0  4  0  0  0  0  0  0
    0.4886    4.2455    3.6117 C   0  0  0  1  0  4  0  0  0  0  0  0
   -0.5614    3.1483    3.5179 C   0  0  0  1  0  4  0  0  0  0  0  0
   -2.3150    0.2560   -4.8241 C   0  0  0  1  0  4  0  0  0  0  0  0
   -3.4772   -0.4856   -4.1599 C   0  0  0  1  0  4  0  0  0  0  0  0
    0.9038    3.2563   -0.1631 H   0  0  0  1  0  1  0  0  0  0  0  0
   -0.3386   -0.9938   -2.9090 H   0  0  0  1  0  1  0  0  0  0  0  0
   -2.0977    2.8907   -5.1399 H   0  0  0  1  0  1  0  0  0  0  0  0
   -0.7106    5.9631   -1.6634 H   0  0  0  1  0  1  0  0  0  0  0  0
   -0.1331    5.1860   -3.1568 H   0  0  0  1  0  1  0  0  0  0  0  0
    1.0337    5.8851   -2.0082 H   0  0  0  1  0  1  0  0  0  0  0  0
    2.0812    1.1915    1.5407 H   0  0  0  1  0  1  0  0  0  0  0  0
    0.5707    1.7820    2.2750 H   0  0  0  1  0  1  0  0  0  0  0  0
    2.6173    2.9353    3.0354 H   0  0  0  1  0  1  0  0  0  0  0  0
    2.7690    3.5284    0.0735 H   0  0  0  1  0  1  0  0  0  0  0  0
    4.0979    3.4297    1.2541 H   0  0  0  1  0  1  0  0  0  0  0  0
    2.7438    5.7743    0.3039 H   0  0  0  1  0  1  0  0  0  0  0  0
    4.0505    5.6726    1.5087 H   0  0  0  1  0  1  0  0  0  0  0  0
    2.5662    5.6738    3.3021 H   0  0  0  1  0  1  0  0  0  0  0  0
    1.4878    6.4734    2.1330 H   0  0  0  1  0  1  0  0  0  0  0  0
    0.0018    5.1889    3.8591 H   0  0  0  1  0  1  0  0  0  0  0  0
    1.2061    3.9908    4.3917 H   0  0  0  1  0  1  0  0  0  0  0  0
   -0.6179    2.6165    4.4677 H   0  0  0  1  0  1  0  0  0  0  0  0
   -0.2876    2.4503    2.7267 H   0  0  0  1  0  1  0  0  0  0  0  0
   -1.5311    3.5921    3.2920 H   0  0  0  1  0  1  0  0  0  0  0  0
   -1.5917   -0.4777   -5.1800 H   0  0  0  1  0  1  0  0  0  0  0  0
   -2.7024    0.8247   -5.6695 H   0  0  0  1  0  1  0  0  0  0  0  0
   -4.3427    0.1742   -4.0995 H   0  0  0  1  0  1  0  0  0  0  0  0
   -3.1849   -0.7939   -3.1561 H   0  0  0  1  0  1  0  0  0  0  0  0
   -3.7318   -1.3652   -4.7511 H   0  0  0  1  0  1  0  0  0  0  0  0
  1  3  1  0  0  0  0
  1  5  2  0  0  0  0
  1 13  1  0  0  0  0
  2 14  1  0  0  0  0
  2 15  1  0  0  0  0
  2 24  1  0  0  0  0
  3 25  1  0  0  0  0
  4 10  1  0  0  0  0
  5  8  1  0  0  0  0
  5 22  1  0  0  0  0
  6 16  1  0  0  0  0
  6 19  1  0  0  0  0
  6 20  1  0  0  0  0
  7 11  1  0  0  0  0
  7 12  1  0  0  0  0
  8 10  2  0  0  0  0
  8 26  1  0  0  0  0
  9 14  2  0  0  0  0
 10 11  1  0  0  0  0
 11 13  2  0  0  0  0
 12 27  1  0  0  0  0
 12 28  1  0  0  0  0
 12 29  1  0  0  0  0
 13 14  1  0  0  0  0
 15 16  1  0  0  0  0
 15 30  1  0  0  0  0
 15 31  1  0  0  0  0
 16 17  1  0  0  0  0
 16 32  1  0  0  0  0
 17 18  1  0  0  0  0
 17 33  1  0  0  0  0
 17 34  1  0  0  0  0
 18 19  1  0  0  0  0
 18 35  1  0  0  0  0
 18 36  1  0  0  0  0
 19 37  1  0  0  0  0
 19 38  1  0  0  0  0
 20 21  1  0  0  0  0
 20 39  1  0  0  0  0
 20 40  1  0  0  0  0
 21 41  1  0  0  0  0
 21 42  1  0  0  0  0
 21 43  1  0  0  0  0
 22 23  1  0  0  0  0
 22 44  1  0  0  0  0
 22 45  1  0  0  0  0
 23 46  1  0  0  0  0
 23 47  1  0  0  0  0
 23 48  1  0  0  0  0
M  END
> <ConfScore>
-0.75401 

$$$$
3PBL_ETQ_A_1200
  RCSB PDB10041311333D
Coordinates from PDB:3PBL:A:1200 Model:1 without hydrogens
 48 49  0  0  0  0  0  0  0  0999 V2000
   -1.0044    0.8487   -2.6563 C   0  0  0  1  0  3  0  0  0  0  0  0
    0.6983    0.0790   -0.4596 N   0  0  0  1  0  3  0  0  0  0  0  0
   -1.0067   -0.4621   -2.2979 O   0  0  0  1  0  2  0  0  0  0  0  0
   -1.0391    5.1974   -3.8380 Cl  0  0  0  1  0  1  0  0  0  0  0  0
   -1.6014    1.2246   -3.8658 C   0  0  0  1  0  3  0  0  0  0  0  0
    2.6471   -2.1839   -0.6364 N   0  0  0  1  0  3  0  0  0  0  0  0
    0.1632    4.1015   -1.4181 O   0  0  0  1  0  2  0  0  0  0  0  0
   -1.6201    2.5772   -4.2116 C   0  0  0  1  0  3  0  0  0  0  0  0
    0.3238    2.1056    0.4632 O   0  0  0  1  0  1  0  0  0  0  0  0
   -1.0342    3.5295   -3.3813 C   0  0  0  1  0  3  0  0  0  0  0  0
   -0.4210    3.1465   -2.1892 C   0  0  0  1  0  3  0  0  0  0  0  0
    0.0835    5.3594   -2.1027 C   0  0  0  1  0  4  0  0  0  0  0  0
   -0.3920    1.7949   -1.8214 C   0  0  0  1  0  3  0  0  0  0  0  0
    0.2276    1.3278   -0.4839 C   0  0  0  1  0  3  0  0  0  0  0  0
    1.4090   -0.5014    0.6972 C   0  0  0  1  0  4  0  0  0  0  0  0
    1.7059   -1.9895    0.4796 C   0  0  0  1  0  4  0  0  0  0  0  0
    0.4589   -2.7350    0.0093 C   0  0  0  1  0  4  0  0  0  0  0  0
    0.9414   -3.7747   -0.9544 C   0  0  0  1  0  4  0  0  0  0  0  0
    2.4471   -3.5833   -1.0342 C   0  0  0  1  0  4  0  0  0  0  0  0
    4.0308   -1.9597   -0.1964 C   0  0  0  1  0  4  0  0  0  0  0  0
    4.2852   -0.4735    0.0078 C   0  0  0  1  0  4  0  0  0  0  0  0
   -2.3150    0.2560   -4.8241 C   0  0  0  1  0  4  0  0  0  0  0  0
   -3.4262   -0.5431   -4.1397 C   0  0  0  1  0  4  0  0  0  0  0  0
    0.5529   -0.5341   -1.3244 H   0  0  0  1  0  1  0  0  0  0  0  0
   -0.3386   -0.9938   -2.9090 H   0  0  0  1  0  1  0  0  0  0  0  0
   -2.0977    2.8907   -5.1399 H   0  0  0  1  0  1  0  0  0  0  0  0
   -0.7106    5.9631   -1.6634 H   0  0  0  1  0  1  0  0  0  0  0  0
   -0.1331    5.1860   -3.1568 H   0  0  0  1  0  1  0  0  0  0  0  0
    1.0337    5.8851   -2.0082 H   0  0  0  1  0  1  0  0  0  0  0  0
    0.7894   -0.3896    1.5869 H   0  0  0  1  0  1  0  0  0  0  0  0
    2.3494    0.0309    0.8395 H   0  0  0  1  0  1  0  0  0  0  0  0
    2.0892   -2.3515    1.4336 H   0  0  0  1  0  1  0  0  0  0  0  0
   -0.2285   -2.0492   -0.4858 H   0  0  0  1  0  1  0  0  0  0  0  0
   -0.0428   -3.2057    0.8548 H   0  0  0  1  0  1  0  0  0  0  0  0
    0.4860   -3.6274   -1.9337 H   0  0  0  1  0  1  0  0  0  0  0  0
    0.7029   -4.7734   -0.5887 H   0  0  0  1  0  1  0  0  0  0  0  0
    2.9604   -4.2582   -0.3492 H   0  0  0  1  0  1  0  0  0  0  0  0
    2.8061   -3.7529   -2.0493 H   0  0  0  1  0  1  0  0  0  0  0  0
    4.7153   -2.3409   -0.9542 H   0  0  0  1  0  1  0  0  0  0  0  0
    4.1989   -2.4857    0.7434 H   0  0  0  1  0  1  0  0  0  0  0  0
    5.0384   -0.3365    0.7836 H   0  0  0  1  0  1  0  0  0  0  0  0
    3.3591    0.0152    0.3105 H   0  0  0  1  0  1  0  0  0  0  0  0
    4.6403   -0.0345   -0.9246 H   0  0  0  1  0  1  0  0  0  0  0  0
   -1.5800   -0.4422   -5.2247 H   0  0  0  1  0  1  0  0  0  0  0  0
   -2.7520    0.8319   -5.6399 H   0  0  0  1  0  1  0  0  0  0  0  0
   -4.3198    0.0752   -4.0551 H   0  0  0  1  0  1  0  0  0  0  0  0
   -3.0972   -0.8439   -3.1450 H   0  0  0  1  0  1  0  0  0  0  0  0
   -3.6530   -1.4299   -4.7315 H   0  0  0  1  0  1  0  0  0  0  0  0
  1  3  1  0  0  0  0
  1  5  2  0  0  0  0
  1 13  1  0  0  0  0
  2 14  1  0  0  0  0
  2 15  1  0  0  0  0
  2 24  1  0  0  0  0
  3 25  1  0  0  0  0
  4 10  1  0  0  0  0
  5  8  1  0  0  0  0
  5 22  1  0  0  0  0
  6 16  1  0  0  0  0
  6 19  1  0  0  0  0
  6 20  1  0  0  0  0
  7 11  1  0  0  0  0
  7 12  1  0  0  0  0
  8 10  2  0  0  0  0
  8 26  1  0  0  0  0
  9 14  2  0  0  0  0
 10 11  1  0  0  0  0
 11 13  2  0  0  0  0
 12 27  1  0  0  0  0
 12 28  1  0  0  0  0
 12 29  1  0  0  0  0
 13 14  1  0  0  0  0
 15 16  1  0  0  0  0
 15 30  1  0  0  0  0
 15 31  1  0  0  0  0
 16 17  1  0  0  0  0
 16 32  1  0  0  0  0
 17 18  1  0  0  0  0
 17 33  1  0  0  0  0
 17 34  1  0  0  0  0
 18 19  1  0  0  0  0
 18 35  1  0  0  0  0
 18 36  1  0  0  0  0
 19 37  1  0  0  0  0
 19 38  1  0  0  0  0
 20 21  1  0  0  0  0
 20 39  1  0  0  0  0
 20 40  1  0  0  0  0
 21 41  1  0  0  0  0
 21 42  1  0  0  0  0
 21 43  1  0  0  0  0
 22 23  1  0  0  0  0
 22 44  1  0  0  0  0
 22 45  1  0  0  0  0
 23 46  1  0  0  0  0
 23 47  1  0  0  0  0
 23 48  1  0  0  0  0
M  END
> <ConfScore>
-0.450489 

$$$$
3PBL_ETQ_A_1200
  RCSB PDB10041311333D
Coordinates from PDB:3PBL:A:1200 Model:1 without hydrogens
 48 49  0  0  0  0  0  0  0  0999 V2000
   -0.8080  -12.3360   10.5520 C   0  0  0  1  0  3  0  0  0  0  0  0
   -1.1110  -15.2025   11.6824 N   0  0  0  1  0  3  0  0  0  0  0  0
   -1.5290  -12.2300   11.6990 O   0  0  0  1  0  2  0  0  0  0  0  0
    1.6090  -12.6560    6.7620 Cl  0  0  0  1  0  1  0  0  0  0  0  0
   -0.8770  -11.3050    9.6070 C   0  0  0  1  0  3  0  0  0  0  0  0
   -3.1791  -17.4490   11.6098 N   0  0  0  1  0  3  0  0  0  0  0  0
    1.5050  -14.6500    8.8870 O   0  0  0  1  0  2  0  0  0  0  0  0
   -0.1100  -11.4090    8.4450 C   0  0  0  1  0  3  0  0  0  0  0  0
    1.1064  -14.8670   11.9463 O   0  0  0  1  0  1  0  0  0  0  0  0
    0.6880  -12.5280    8.2200 C   0  0  0  1  0  3  0  0  0  0  0  0
    0.7350  -13.5620    9.1540 C   0  0  0  1  0  3  0  0  0  0  0  0
    2.0610  -14.5099    7.5722 C   0  0  0  1  0  4  0  0  0  0  0  0
   -0.0250  -13.4780   10.3280 C   0  0  0  1  0  3  0  0  0  0  0  0
    0.0360  -14.5730   11.4180 C   0  0  0  1  0  3  0  0  0  0  0  0
   -1.2199  -16.3381   12.6198 C   0  0  0  1  0  4  0  0  0  0  0  0
   -2.6803  -16.7596   12.8175 C   0  0  0  1  0  4  0  0  0  0  0  0
   -2.7685  -17.7702   13.9587 C   0  0  0  1  0  4  0  0  0  0  0  0
   -2.6142  -19.0998   13.2389 C   0  0  0  1  0  4  0  0  0  0  0  0
   -3.4139  -18.8624   11.9669 C   0  0  0  1  0  4  0  0  0  0  0  0
   -4.4415  -16.8224   11.1951 C   0  0  0  1  0  4  0  0  0  0  0  0
   -4.6808  -17.0506    9.7098 C   0  0  0  1  0  4  0  0  0  0  0  0
   -1.6890  -10.0110    9.7860 C   0  0  0  1  0  4  0  0  0  0  0  0
   -2.7241   -9.8032    8.6782 C   0  0  0  1  0  4  0  0  0  0  0  0
   -1.9988  -14.8663   11.1888 H   0  0  0  1  0  1  0  0  0  0  0  0
   -0.8760  -12.1546   12.5178 H   0  0  0  1  0  1  0  0  0  0  0  0
   -0.1360  -10.6071    7.7072 H   0  0  0  1  0  1  0  0  0  0  0  0
    3.1009  -14.8365    7.5802 H   0  0  0  1  0  1  0  0  0  0  0  0
    2.0110  -13.4649    7.2663 H   0  0  0  1  0  1  0  0  0  0  0  0
    1.4936  -15.1219    6.8710 H   0  0  0  1  0  1  0  0  0  0  0  0
   -0.8017  -16.0448   13.5827 H   0  0  0  1  0  1  0  0  0  0  0  0
   -0.6577  -17.1825   12.2210 H   0  0  0  1  0  1  0  0  0  0  0  0
   -3.2653  -15.8639   13.0264 H   0  0  0  1  0  1  0  0  0  0  0  0
   -3.7312  -17.7072   14.4660 H   0  0  0  1  0  1  0  0  0  0  0  0
   -1.9661  -17.6187   14.6807 H   0  0  0  1  0  1  0  0  0  0  0  0
   -3.0338  -19.9182   13.8239 H   0  0  0  1  0  1  0  0  0  0  0  0
   -1.5683  -19.3107   13.0160 H   0  0  0  1  0  1  0  0  0  0  0  0
   -3.0652  -19.5193   11.1700 H   0  0  0  1  0  1  0  0  0  0  0  0
   -4.4746  -19.0387   12.1457 H   0  0  0  1  0  1  0  0  0  0  0  0
   -4.3927  -15.7513   11.3910 H   0  0  0  1  0  1  0  0  0  0  0  0
   -5.2632  -17.2591   11.7628 H   0  0  0  1  0  1  0  0  0  0  0  0
   -4.0269  -17.8468    9.3540 H   0  0  0  1  0  1  0  0  0  0  0  0
   -4.4663  -16.1328    9.1623 H   0  0  0  1  0  1  0  0  0  0  0  0
   -5.7205  -17.3356    9.5491 H   0  0  0  1  0  1  0  0  0  0  0  0
   -1.0014   -9.1652    9.7833 H   0  0  0  1  0  1  0  0  0  0  0  0
   -2.2078  -10.0551   10.7436 H   0  0  0  1  0  1  0  0  0  0  0  0
   -3.7005   -9.6124    9.1237 H   0  0  0  1  0  1  0  0  0  0  0  0
   -2.7767  -10.6980    8.0579 H   0  0  0  1  0  1  0  0  0  0  0  0
   -2.4325   -8.9513    8.0640 H   0  0  0  1  0  1  0  0  0  0  0  0
  1  3  1  0  0  0  0
  1  5  2  0  0  0  0
  1 13  1  0  0  0  0
  2 14  1  0  0  0  0
  2 15  1  0  0  0  0
  2 24  1  0  0  0  0
  3 25  1  0  0  0  0
  4 10  1  0  0  0  0
  5  8  1  0  0  0  0
  5 22  1  0  0  0  0
  6 16  1  0  0  0  0
  6 19  1  0  0  0  0
  6 20  1  0  0  0  0
  7 11  1  0  0  0  0
  7 12  1  0  0  0  0
  8 10  2  0  0  0  0
  8 26  1  0  0  0  0
  9 14  2  0  0  0  0
 10 11  1  0  0  0  0
 11 13  2  0  0  0  0
 12 27  1  0  0  0  0
 12 28  1  0  0  0  0
 12 29  1  0  0  0  0
 13 14  1  0  0  0  0
 15 16  1  0  0  0  0
 15 30  1  0  0  0  0
 15 31  1  0  0  0  0
 16 17  1  0  0  0  0
 16 32  1  0  0  0  0
 17 18  1  0  0  0  0
 17 33  1  0  0  0  0
 17 34  1  0  0  0  0
 18 19  1  0  0  0  0
 18 35  1  0  0  0  0
 18 36  1  0  0  0  0
 19 37  1  0  0  0  0
 19 38  1  0  0  0  0
 20 21  1  0  0  0  0
 20 39  1  0  0  0  0
 20 40  1  0  0  0  0
 21 41  1  0  0  0  0
 21 42  1  0  0  0  0
 21 43  1  0  0  0  0
 22 23  1  0  0  0  0
 22 44  1  0  0  0  0
 22 45  1  0  0  0  0
 23 46  1  0  0  0  0
 23 47  1  0  0  0  0
 23 48  1  0  0  0  0
M  END
> <ConfScore>
-0.230114 

$$$$
3PBL_ETQ_A_1200
  RCSB PDB10041311333D
Coordinates from PDB:3PBL:A:1200 Model:1 without hydrogens
 48 49  0  0  0  0  0  0  0  0999 V2000
   -0.8080  -12.3360   10.5520 C   0  0  0  1  0  3  0  0  0  0  0  0
   -1.1110  -15.2025   11.6824 N   0  0  0  1  0  3  0  0  0  0  0  0
   -1.5290  -12.2300   11.6990 O   0  0  0  1  0  2  0  0  0  0  0  0
    1.6090  -12.6560    6.7620 Cl  0  0  0  1  0  1  0  0  0  0  0  0
   -0.8770  -11.3050    9.6070 C   0  0  0  1  0  3  0  0  0  0  0  0
   -3.1791  -17.4490   11.6098 N   0  0  0  1  0  3  0  0  0  0  0  0
    1.5050  -14.6500    8.8870 O   0  0  0  1  0  2  0  0  0  0  0  0
   -0.1100  -11.4090    8.4450 C   0  0  0  1  0  3  0  0  0  0  0  0
    1.1064  -14.8670   11.9463 O   0  0  0  1  0  1  0  0  0  0  0  0
    0.6880  -12.5280    8.2200 C   0  0  0  1  0  3  0  0  0  0  0  0
    0.7350  -13.5620    9.1540 C   0  0  0  1  0  3  0  0  0  0  0  0
    1.4550  -15.5377   10.0126 C   0  0  0  1  0  4  0  0  0  0  0  0
   -0.0250  -13.4780   10.3280 C   0  0  0  1  0  3  0  0  0  0  0  0
    0.0360  -14.5730   11.4180 C   0  0  0  1  0  3  0  0  0  0  0  0
   -1.2199  -16.3381   12.6198 C   0  0  0  1  0  4  0  0  0  0  0  0
   -2.6803  -16.7596   12.8175 C   0  0  0  1  0  4  0  0  0  0  0  0
   -2.7685  -17.7702   13.9587 C   0  0  0  1  0  4  0  0  0  0  0  0
   -2.6142  -19.0998   13.2389 C   0  0  0  1  0  4  0  0  0  0  0  0
   -3.4139  -18.8624   11.9669 C   0  0  0  1  0  4  0  0  0  0  0  0
   -4.4415  -16.8224   11.1951 C   0  0  0  1  0  4  0  0  0  0  0  0
   -4.6808  -17.0506    9.7098 C   0  0  0  1  0  4  0  0  0  0  0  0
   -1.6890  -10.0110    9.7860 C   0  0  0  1  0  4  0  0  0  0  0  0
   -2.7241   -9.8032    8.6782 C   0  0  0  1  0  4  0  0  0  0  0  0
   -1.9988  -14.8663   11.1888 H   0  0  0  1  0  1  0  0  0  0  0  0
   -0.8760  -12.1546   12.5178 H   0  0  0  1  0  1  0  0  0  0  0  0
   -0.1360  -10.6071    7.7072 H   0  0  0  1  0  1  0  0  0  0  0  0
    2.4677  -15.7420   10.3602 H   0  0  0  1  0  1  0  0  0  0  0  0
    0.9771  -16.4718    9.7173 H   0  0  0  1  0  1  0  0  0  0  0  0
    0.8821  -15.0739   10.8156 H   0  0  0  1  0  1  0  0  0  0  0  0
   -0.8017  -16.0448   13.5827 H   0  0  0  1  0  1  0  0  0  0  0  0
   -0.6577  -17.1825   12.2210 H   0  0  0  1  0  1  0  0  0  0  0  0
   -3.2653  -15.8639   13.0264 H   0  0  0  1  0  1  0  0  0  0  0  0
   -3.7312  -17.7072   14.4660 H   0  0  0  1  0  1  0  0  0  0  0  0
   -1.9661  -17.6187   14.6807 H   0  0  0  1  0  1  0  0  0  0  0  0
   -3.0338  -19.9182   13.8239 H   0  0  0  1  0  1  0  0  0  0  0  0
   -1.5683  -19.3107   13.0160 H   0  0  0  1  0  1  0  0  0  0  0  0
   -3.0652  -19.5193   11.1700 H   0  0  0  1  0  1  0  0  0  0  0  0
   -4.4746  -19.0387   12.1457 H   0  0  0  1  0  1  0  0  0  0  0  0
   -4.3927  -15.7513   11.3910 H   0  0  0  1  0  1  0  0  0  0  0  0
   -5.2632  -17.2591   11.7628 H   0  0  0  1  0  1  0  0  0  0  0  0
   -4.0269  -17.8468    9.3540 H   0  0  0  1  0  1  0  0  0  0  0  0
   -4.4663  -16.1328    9.1623 H   0  0  0  1  0  1  0  0  0  0  0  0
   -5.7205  -17.3356    9.5491 H   0  0  0  1  0  1  0  0  0  0  0  0
   -1.0014   -9.1652    9.7833 H   0  0  0  1  0  1  0  0  0  0  0  0
   -2.2078  -10.0551   10.7436 H   0  0  0  1  0  1  0  0  0  0  0  0
   -3.7005   -9.6124    9.1237 H   0  0  0  1  0  1  0  0  0  0  0  0
   -2.7767  -10.6980    8.0579 H   0  0  0  1  0  1  0  0  0  0  0  0
   -2.4325   -8.9513    8.0640 H   0  0  0  1  0  1  0  0  0  0  0  0
  1  3  1  0  0  0  0
  1  5  2  0  0  0  0
  1 13  1  0  0  0  0
  2 14  1  0  0  0  0
  2 15  1  0  0  0  0
  2 24  1  0  0  0  0
  3 25  1  0  0  0  0
  4 10  1  0  0  0  0
  5  8  1  0  0  0  0
  5 22  1  0  0  0  0
  6 16  1  0  0  0  0
  6 19  1  0  0  0  0
  6 20  1  0  0  0  0
  7 11  1  0  0  0  0
  7 12  1  0  0  0  0
  8 10  2  0  0  0  0
  8 26  1  0  0  0  0
  9 14  2  0  0  0  0
 10 11  1  0  0  0  0
 11 13  2  0  0  0  0
 12 27  1  0  0  0  0
 12 28  1  0  0  0  0
 12 29  1  0  0  0  0
 13 14  1  0  0  0  0
 15 16  1  0  0  0  0
 15 30  1  0  0  0  0
 15 31  1  0  0  0  0
 16 17  1  0  0  0  0
 16 32  1  0  0  0  0
 17 18  1  0  0  0  0
 17 33  1  0  0  0  0
 17 34  1  0  0  0  0
 18 19  1  0  0  0  0
 18 35  1  0  0  0  0
 18 36  1  0  0  0  0
 19 37  1  0  0  0  0
 19 38  1  0  0  0  0
 20 21  1  0  0  0  0
 20 39  1  0  0  0  0
 20 40  1  0  0  0  0
 21 41  1  0  0  0  0
 21 42  1  0  0  0  0
 21 43  1  0  0  0  0
 22 23  1  0  0  0  0
 22 44  1  0  0  0  0
 22 45  1  0  0  0  0
 23 46  1  0  0  0  0
 23 47  1  0  0  0  0
 23 48  1  0  0  0  0
M  END
> <ConfScore>
-0.236874 

$$$$
